/*--------------------------------*- C++ -*----------------------------------*\
| =========                 |                                                 |
| \\      /  F ield         | OpenFOAM: The Open Source CFD Toolbox           |
|  \\    /   O peration     | Version:  v2306                                 |
|   \\  /    A nd           | Website:  www.openfoam.com                      |
|    \\/     M anipulation  |                                                 |
\*---------------------------------------------------------------------------*/
FoamFile
{
    version     2.0;
    format      ascii;
    class       dictionary;
    object      controlDict;
}
// * * * * * * * * * * * * * * * * * * * * * * * * * * * * * * * * * * * * * //

application     electrolyteSimpleFoam;

startFrom       latestTime;

startTime       0;

stopAt          endTime;

endTime         100000;

deltaT        1e-7;

writeControl    timeStep;

writeInterval   10000;

purgeWrite      0;

writeFormat     ascii;

writePrecision  20;

writeCompression off;

timeFormat      general;

timePrecision   7;

runTimeModifiable false;



// ************************************************************************* //
