/*--------------------------------*- C++ -*----------------------------------*\
| =========                 |                                                 |
| \\      /  F ield         | OpenFOAM: The Open Source CFD Toolbox           |
|  \\    /   O peration     | Version:  2306                                  |
|   \\  /    A nd           | Website:  www.openfoam.com                      |
|    \\/     M anipulation  |                                                 |
\*---------------------------------------------------------------------------*/
FoamFile
{
    version     2.0;
    format      ascii;
    arch        "LSB;label=32;scalar=64";
    class       polyBoundaryMesh;
    location    "constant/polyMesh";
    object      boundary;
}
// * * * * * * * * * * * * * * * * * * * * * * * * * * * * * * * * * * * * * //

6
(
    front
    {
        type            empty;
        inGroups        1(empty);
        nFaces          160;
        startFace       159;
    }
    back
    {
        type            empty;
        inGroups        1(empty);
        nFaces          160;
        startFace       319;
    }
    top
    {
        type            wedge;
        inGroups        1(wedge);
        nFaces          160;
        startFace       479;
    }
    bottom
    {
        type            wedge;
        inGroups        1(wedge);
        nFaces          160;
        startFace       639;
    }
    perim
    {
        type            wall;
        inGroups        1(wall);
        nFaces          1;
        startFace       799;
    }
    defaultFaces
    {
        type            empty;
        inGroups        1(empty);
        nFaces          0;
        startFace       800;
    }
)

// ************************************************************************* //
