/*--------------------------------*- C++ -*----------------------------------*\
| =========                 |                                                 |
| \\      /  F ield         | OpenFOAM: The Open Source CFD Toolbox           |
|  \\    /   O peration     | Version:  v2306                                 |
|   \\  /    A nd           | Website:  www.openfoam.com                      |
|    \\/     M anipulation  |                                                 |
\*---------------------------------------------------------------------------*/
FoamFile
{
    version     2.0;
    format      ascii;
    class       volScalarField;
    object      n1;
}
// * * * * * * * * * * * * * * * * * * * * * * * * * * * * * * * * * * * * * //

dimensions      [0 0 0 0 0 0 0];

internalField  uniform 0.5;


boundaryField
{
    perim
    {
        type uniformFixedValue;
        uniformValue table
        (
(0.0 0.5)
(2e-05 0.5000115371154547)
(4e-05 0.5000230744971195)
(6.000000000000001e-05 0.5000346121450003)
(8e-05 0.5000461500591037)
(0.0001 0.5000576882394355)
(0.00012000000000000002 0.500069226686002)
(0.00014000000000000001 0.5000807653988092)
(0.00016 0.5000923043778633)
(0.00018 0.5001038436231705)
(0.0002 0.5001153831347369)
(0.00022 0.5001269229125687)
(0.00024000000000000003 0.500138462956672)
(0.00026000000000000003 0.5001500032670528)
(0.00028000000000000003 0.5001615438437176)
(0.00030000000000000003 0.5001730846866722)
(0.00032 0.5001846257959229)
(0.00034 0.5001961671714759)
(0.00036 0.5002077088133371)
(0.00038 0.500219250721513)
(0.0004 0.5002307928960094)
(0.00042 0.5002423353368327)
(0.00044 0.5002538780439889)
(0.00046 0.5002654210174842)
(0.00048000000000000007 0.5002769642573247)
(0.0005 0.5002885077635166)
(0.0005200000000000001 0.500300051536066)
(0.00054 0.5003115955749792)
(0.0005600000000000001 0.5003231398802621)
(0.00058 0.500334684451921)
(0.0006000000000000001 0.500346229289962)
(0.00062 0.5003577743943912)
(0.00064 0.5003693197652149)
(0.0006600000000000001 0.5003808654024391)
(0.00068 0.50039241130607)
(0.0007000000000000001 0.5004039574761138)
(0.00072 0.5004155039125766)
(0.0007400000000000001 0.5004270506154644)
(0.00076 0.5004385975847837)
(0.0007800000000000001 0.5004501448205403)
(0.0008 0.5004616923227405)
(0.0008200000000000001 0.5004732400913905)
(0.00084 0.5004847881264963)
(0.0008600000000000001 0.5004963364280641)
(0.00088 0.5005078849961002)
(0.0009000000000000001 0.5005194338306105)
(0.00092 0.5005309829316014)
(0.0009400000000000001 0.5005425322990789)
(0.0009600000000000001 0.5005540819330491)
(0.0009800000000000002 0.5005656318335182)
(0.001 0.5005771820004924)
(0.00102 0.5005887324339778)
(0.0010400000000000001 0.5006002831339806)
(0.0010600000000000002 0.5006118341005069)
(0.00108 0.500623385333563)
(0.0011 0.5006349368331547)
(0.0011200000000000001 0.5006464885992885)
(0.0011400000000000002 0.5006580406319705)
(0.00116 0.5006695929312066)
(0.00118 0.5006811454970033)
(0.0012000000000000001 0.5006926983293664)
(0.0012200000000000002 0.5007042514283022)
(0.00124 0.500715804793817)
(0.00126 0.5007273584259168)
(0.00128 0.5007389123246078)
(0.0013000000000000002 0.5007504664898961)
(0.0013200000000000002 0.5007620209217878)
(0.00134 0.5007735756202891)
(0.00136 0.5007851305854063)
(0.0013800000000000002 0.5007966858171454)
(0.0014000000000000002 0.5008082413155126)
(0.00142 0.500819797080514)
(0.00144 0.5008313531121559)
(0.0014600000000000001 0.5008429094104442)
(0.0014800000000000002 0.5008544659753853)
(0.0015 0.5008660228069852)
(0.00152 0.5008775799052501)
(0.0015400000000000001 0.5008891372701861)
(0.0015600000000000002 0.5009006949017996)
(0.00158 0.5009122528000963)
(0.0016 0.5009238109650828)
(0.0016200000000000001 0.500935369396765)
(0.0016400000000000002 0.5009469280951491)
(0.0016600000000000002 0.5009584870602413)
(0.00168 0.5009700462920478)
(0.0017000000000000001 0.5009816057905746)
(0.0017200000000000002 0.500993165555828)
(0.0017400000000000002 0.501004725587814)
(0.00176 0.5010162858865389)
(0.0017800000000000001 0.5010278464520087)
(0.0018000000000000002 0.5010394072842298)
(0.0018200000000000002 0.5010509683832082)
(0.00184 0.50106252974895)
(0.00186 0.5010740913814614)
(0.0018800000000000002 0.5010856532807487)
(0.0019000000000000002 0.5010972154468178)
(0.0019200000000000003 0.5011087778796751)
(0.00194 0.5011203405793266)
(0.0019600000000000004 0.5011319035457785)
(0.00198 0.501143466779037)
(0.002 0.5011550302791081)
(0.00202 0.5011665940459982)
(0.00204 0.5011781580797133)
(0.00206 0.5011897223802596)
(0.0020800000000000003 0.5012012869476432)
(0.0021000000000000003 0.5012128517818703)
(0.0021200000000000004 0.501224416882947)
(0.00214 0.5012359822508796)
(0.00216 0.5012475478856742)
(0.00218 0.5012591137873368)
(0.0022 0.5012706799558737)
(0.00222 0.5012822463912912)
(0.0022400000000000002 0.5012938130935951)
(0.0022600000000000003 0.5013053800627919)
(0.0022800000000000003 0.5013169472988875)
(0.0023000000000000004 0.5013285148018883)
(0.00232 0.5013400825718003)
(0.00234 0.5013516506086296)
(0.00236 0.5013632189123826)
(0.00238 0.5013747874830653)
(0.0024000000000000002 0.5013863563206837)
(0.0024200000000000003 0.5013979254252443)
(0.0024400000000000003 0.501409494796753)
(0.0024600000000000004 0.5014210644352162)
(0.00248 0.5014326343406398)
(0.0025 0.50144420451303)
(0.00252 0.5014557749523931)
(0.00254 0.5014673456587352)
(0.00256 0.5014789166320625)
(0.0025800000000000003 0.5014904878723809)
(0.0026000000000000003 0.5015020593796969)
(0.0026200000000000004 0.5015136311540166)
(0.0026400000000000004 0.5015252031953461)
(0.00266 0.5015367755036915)
(0.00268 0.501548348079059)
(0.0027 0.5015599209214547)
(0.00272 0.501571494030885)
(0.0027400000000000002 0.5015830674073558)
(0.0027600000000000003 0.5015946410508734)
(0.0027800000000000004 0.5016062149614439)
(0.0028000000000000004 0.5016177891390735)
(0.00282 0.5016293635837683)
(0.00284 0.5016409382955346)
(0.00286 0.5016525132743784)
(0.00288 0.501664088520306)
(0.0029000000000000002 0.5016756640333234)
(0.0029200000000000003 0.5016872398134369)
(0.0029400000000000003 0.5016988158606527)
(0.0029600000000000004 0.5017103921749767)
(0.0029800000000000004 0.5017219687564154)
(0.003 0.5017335456049749)
(0.00302 0.5017451227206611)
(0.00304 0.5017567001034804)
(0.0030600000000000002 0.5017682777534389)
(0.0030800000000000003 0.5017798556705427)
(0.0031000000000000003 0.5017914338547982)
(0.0031200000000000004 0.5018030123062113)
(0.0031400000000000004 0.5018145910247882)
(0.00316 0.5018261700105352)
(0.00318 0.5018377492634584)
(0.0032 0.5018493287835639)
(0.00322 0.501860908570858)
(0.0032400000000000003 0.5018724886253467)
(0.0032600000000000003 0.5018840689470364)
(0.0032800000000000004 0.501895649535933)
(0.0033000000000000004 0.5019072303920428)
(0.0033200000000000005 0.5019188115153719)
(0.00334 0.5019303929059266)
(0.00336 0.5019419745637129)
(0.00338 0.5019535564887371)
(0.0034000000000000002 0.5019651386810053)
(0.0034200000000000003 0.5019767211405237)
(0.0034400000000000003 0.5019883038672984)
(0.0034600000000000004 0.5019998868613357)
(0.0034800000000000005 0.5020114701226416)
(0.0035 0.5020230536512222)
(0.00352 0.5020346374470841)
(0.00354 0.502046221510233)
(0.0035600000000000002 0.5020578058406753)
(0.0035800000000000003 0.5020693904384171)
(0.0036000000000000003 0.5020809753034646)
(0.0036200000000000004 0.502092560435824)
(0.0036400000000000004 0.5021041458355013)
(0.0036600000000000005 0.5021157315025029)
(0.00368 0.5021273174368348)
(0.0037 0.5021389036385032)
(0.00372 0.5021504901075143)
(0.0037400000000000003 0.5021620768438744)
(0.0037600000000000003 0.5021736638475894)
(0.0037800000000000004 0.5021852511186656)
(0.0038000000000000004 0.5021968386571092)
(0.0038200000000000005 0.5022084264629263)
(0.0038400000000000005 0.5022200145361232)
(0.00386 0.5022316028767059)
(0.00388 0.5022431914846807)
(0.0039000000000000003 0.5022547803600536)
(0.003920000000000001 0.502266369502831)
(0.00394 0.5022779589130189)
(0.00396 0.5022895485906235)
(0.00398 0.5023011385356511)
(0.004 0.5023127287481076)
(0.00402 0.5023243192279995)
(0.00404 0.5023359099753327)
(0.00406 0.5023475009901136)
(0.00408 0.5023590922723482)
(0.0041 0.5023706838220426)
(0.00412 0.5023822756392033)
(0.0041400000000000005 0.5023938677238362)
(0.0041600000000000005 0.5024054600759474)
(0.0041800000000000006 0.5024170526955434)
(0.004200000000000001 0.5024286455826301)
(0.004220000000000001 0.5024402387372138)
(0.004240000000000001 0.5024518321593006)
(0.004260000000000001 0.5024634258488966)
(0.00428 0.5024750198060082)
(0.0043 0.5024866140306413)
(0.00432 0.5024982085228024)
(0.00434 0.5025098032824973)
(0.00436 0.5025213983097325)
(0.00438 0.502532993604514)
(0.0044 0.502544589166848)
(0.00442 0.5025561849967407)
(0.00444 0.5025677810941982)
(0.00446 0.5025793774592268)
(0.0044800000000000005 0.5025909740918325)
(0.0045000000000000005 0.5026025709920218)
(0.004520000000000001 0.5026141681598004)
(0.004540000000000001 0.5026257655951749)
(0.004560000000000001 0.5026373632981512)
(0.004580000000000001 0.5026489612687356)
(0.004600000000000001 0.5026605595069342)
(0.00462 0.5026721580127533)
(0.00464 0.502683756786199)
(0.00466 0.5026953558272775)
(0.00468 0.502706955135995)
(0.0047 0.5027185547123575)
(0.00472 0.5027301545563714)
(0.00474 0.5027417546680427)
(0.00476 0.5027533550473777)
(0.00478 0.5027649556943825)
(0.0048000000000000004 0.5027765566090633)
(0.0048200000000000005 0.5027881577914264)
(0.0048400000000000006 0.5027997592414777)
(0.004860000000000001 0.5028113609592236)
(0.004880000000000001 0.5028229629446702)
(0.004900000000000001 0.5028345651978238)
(0.004920000000000001 0.5028461677186904)
(0.004940000000000001 0.5028577705072762)
(0.00496 0.5028693735635874)
(0.00498 0.5028809768876302)
(0.005 0.5028925804794109)
(0.00502 0.5029041843389355)
(0.00504 0.5029157884662102)
(0.00506 0.5029273928612412)
(0.00508 0.5029389975240348)
(0.0051 0.502950602454597)
(0.00512 0.502962207652934)
(0.0051400000000000005 0.5029738131190521)
(0.0051600000000000005 0.5029854188529573)
(0.005180000000000001 0.502997024854656)
(0.005200000000000001 0.5030086311241542)
(0.005220000000000001 0.5030202376614582)
(0.005240000000000001 0.503031844466574)
(0.005260000000000001 0.503043451539508)
(0.005280000000000001 0.5030550588802664)
(0.0053 0.503066666488855)
(0.00532 0.5030782743652804)
(0.00534 0.5030898825095486)
(0.00536 0.5031014909216658)
(0.00538 0.5031130996016382)
(0.0054 0.5031247085494719)
(0.00542 0.5031363177651732)
(0.00544 0.5031479272487481)
(0.0054600000000000004 0.5031595370002031)
(0.0054800000000000005 0.503171147019544)
(0.0055000000000000005 0.5031827573067773)
(0.005520000000000001 0.503194367861909)
(0.005540000000000001 0.5032059786849453)
(0.005560000000000001 0.5032175897758925)
(0.005580000000000001 0.5032292011347567)
(0.005600000000000001 0.503240812761544)
(0.005620000000000001 0.5032524246562606)
(0.00564 0.5032640368189129)
(0.00566 0.5032756492495067)
(0.00568 0.5032872619480486)
(0.0057 0.5032988749145445)
(0.00572 0.5033104881490007)
(0.00574 0.5033221016514234)
(0.00576 0.5033337154218187)
(0.00578 0.5033453294601928)
(0.0058000000000000005 0.5033569437665519)
(0.0058200000000000005 0.5033685583409022)
(0.005840000000000001 0.5033801731832499)
(0.005860000000000001 0.5033917882936011)
(0.005880000000000001 0.5034034036719621)
(0.005900000000000001 0.503415019318339)
(0.005920000000000001 0.503426635232738)
(0.005940000000000001 0.5034382514151653)
(0.005960000000000001 0.503449867865627)
(0.00598 0.5034614845841294)
(0.006 0.5034731015706787)
(0.00602 0.503484718825281)
(0.00604 0.5034963363479424)
(0.00606 0.5035079541386694)
(0.00608 0.5035195721974679)
(0.0061 0.5035311905243441)
(0.0061200000000000004 0.5035428091193044)
(0.0061400000000000005 0.5035544279823547)
(0.0061600000000000005 0.5035660471135015)
(0.006180000000000001 0.5035776665127507)
(0.006200000000000001 0.5035892861801086)
(0.006220000000000001 0.5036009061155814)
(0.006240000000000001 0.5036125263191753)
(0.006260000000000001 0.5036241467908964)
(0.006280000000000001 0.503635767530751)
(0.006300000000000001 0.5036473885387451)
(0.00632 0.5036590098148852)
(0.00634 0.5036706313591772)
(0.00636 0.5036822531716275)
(0.00638 0.5036938752522422)
(0.0064 0.5037054976010273)
(0.00642 0.5037171202179893)
(0.00644 0.5037287431031342)
(0.0064600000000000005 0.5037403662564682)
(0.0064800000000000005 0.5037519896779976)
(0.006500000000000001 0.5037636133677286)
(0.006520000000000001 0.5037752373256671)
(0.006540000000000001 0.5037868615518196)
(0.006560000000000001 0.5037984860461922)
(0.006580000000000001 0.5038101108087909)
(0.006600000000000001 0.5038217358396222)
(0.006620000000000001 0.5038333611386921)
(0.006640000000000001 0.5038449867060069)
(0.00666 0.5038566125415727)
(0.00668 0.5038682386453956)
(0.0067 0.503879865017482)
(0.00672 0.5038914916578381)
(0.00674 0.5039031185664699)
(0.00676 0.5039147457433836)
(0.0067800000000000004 0.5039263731885855)
(0.0068000000000000005 0.5039380009020817)
(0.0068200000000000005 0.5039496288838786)
(0.006840000000000001 0.5039612571339821)
(0.006860000000000001 0.5039728856523986)
(0.006880000000000001 0.5039845144391342)
(0.006900000000000001 0.5039961434941951)
(0.006920000000000001 0.5040077728175876)
(0.006940000000000001 0.5040194024093176)
(0.006960000000000001 0.5040310322693916)
(0.006980000000000001 0.5040426623978157)
(0.007 0.504054292794596)
(0.00702 0.5040659234597388)
(0.00704 0.5040775543932503)
(0.00706 0.5040891855951366)
(0.00708 0.5041008170654039)
(0.0071 0.5041124488040585)
(0.0071200000000000005 0.5041240808111065)
(0.0071400000000000005 0.504135713086554)
(0.0071600000000000006 0.5041473456304075)
(0.007180000000000001 0.5041589784426729)
(0.007200000000000001 0.5041706115233565)
(0.007220000000000001 0.5041822448724645)
(0.007240000000000001 0.5041938784900031)
(0.007260000000000001 0.5042055123759784)
(0.007280000000000001 0.5042171465303968)
(0.007300000000000001 0.5042287809532643)
(0.007320000000000001 0.5042404156445872)
(0.00734 0.5042520506043716)
(0.00736 0.5042636858326237)
(0.00738 0.5042753213293498)
(0.0074 0.5042869570945561)
(0.00742 0.5042985931282487)
(0.00744 0.5043102294304338)
(0.0074600000000000005 0.5043218660011176)
(0.0074800000000000005 0.5043335028403064)
(0.007500000000000001 0.5043451399480062)
(0.007520000000000001 0.5043567773242235)
(0.007540000000000001 0.5043684149689641)
(0.007560000000000001 0.5043800528822344)
(0.007580000000000001 0.5043916910640408)
(0.007600000000000001 0.5044033295143892)
(0.007620000000000001 0.5044149682332858)
(0.007640000000000001 0.504426607220737)
(0.007660000000000001 0.5044382464767488)
(0.007680000000000001 0.5044498860013275)
(0.0077 0.5044615257944793)
(0.00772 0.5044731658562104)
(0.00774 0.5044848061865269)
(0.00776 0.5044964467854351)
(0.0077800000000000005 0.5045080876529412)
(0.0078000000000000005 0.5045197287890514)
(0.00782 0.5045313701937718)
(0.007840000000000001 0.5045430118671086)
(0.00786 0.5045546538090682)
(0.00788 0.5045662960196565)
(0.0079 0.50457793849888)
(0.00792 0.5045895812467447)
(0.007940000000000001 0.5046012242632568)
(0.00796 0.5046128675484226)
(0.007980000000000001 0.5046245111022483)
(0.008 0.50463615492474)
(0.008020000000000001 0.504647799015904)
(0.00804 0.5046594433757463)
(0.008060000000000001 0.5046710880042733)
(0.00808 0.5046827329014912)
(0.008100000000000001 0.5046943780674061)
(0.00812 0.5047060235020243)
(0.008140000000000001 0.504717669205352)
(0.00816 0.5047293151773953)
(0.008180000000000002 0.5047409614181604)
(0.0082 0.5047526079276535)
(0.00822 0.5047642547058809)
(0.00824 0.5047759017528488)
(0.00826 0.5047875490685634)
(0.008280000000000001 0.5047991966530307)
(0.0083 0.5048108445062572)
(0.008320000000000001 0.5048224926282489)
(0.00834 0.504834141019012)
(0.008360000000000001 0.5048457896785529)
(0.00838 0.5048574386068775)
(0.008400000000000001 0.5048690878039922)
(0.00842 0.5048807372699032)
(0.008440000000000001 0.5048923870046167)
(0.00846 0.5049040370081388)
(0.008480000000000001 0.5049156872804758)
(0.0085 0.5049273378216339)
(0.008520000000000002 0.5049389886316192)
(0.00854 0.5049506397104381)
(0.00856 0.5049622910580965)
(0.00858 0.5049739426746009)
(0.0086 0.5049855945599574)
(0.008620000000000001 0.5049972467141722)
(0.00864 0.5050088991372514)
(0.008660000000000001 0.5050205518292015)
(0.00868 0.5050322047900283)
(0.008700000000000001 0.5050438580197383)
(0.00872 0.5050555115183376)
(0.008740000000000001 0.5050671652858324)
(0.00876 0.505078819322229)
(0.008780000000000001 0.5050904736275335)
(0.0088 0.505102128201752)
(0.008820000000000001 0.505113783044891)
(0.00884 0.5051254381569564)
(0.008860000000000002 0.5051370935379547)
(0.00888 0.5051487491878919)
(0.0089 0.5051604051067742)
(0.00892 0.5051720612946079)
(0.00894 0.5051837177513991)
(0.008960000000000001 0.5051953744771542)
(0.00898 0.5052070314718793)
(0.009000000000000001 0.5052186887355805)
(0.00902 0.505230346268264)
(0.009040000000000001 0.5052420040699362)
(0.00906 0.5052536621406033)
(0.009080000000000001 0.5052653204802713)
(0.0091 0.5052769790889465)
(0.009120000000000001 0.5052886379666353)
(0.00914 0.5053002971133436)
(0.009160000000000001 0.5053119565290778)
(0.00918 0.5053236162138439)
(0.009200000000000002 0.5053352761676484)
(0.00922 0.5053469363904973)
(0.00924 0.505358596882397)
(0.009260000000000001 0.5053702576433535)
(0.00928 0.5053819186733731)
(0.009300000000000001 0.5053935799724619)
(0.00932 0.5054052415406264)
(0.009340000000000001 0.5054169033778725)
(0.00936 0.5054285654842064)
(0.009380000000000001 0.5054402278596347)
(0.0094 0.5054518905041632)
(0.009420000000000001 0.5054635534177983)
(0.00944 0.5054752166005461)
(0.009460000000000001 0.5054868800524128)
(0.00948 0.5054985437734049)
(0.009500000000000001 0.5055102077635282)
(0.00952 0.5055218720227892)
(0.009540000000000002 0.505533536551194)
(0.00956 0.5055452013487488)
(0.00958 0.5055568664154598)
(0.009600000000000001 0.5055685317513333)
(0.00962 0.5055801973563755)
(0.009640000000000001 0.5055918632305925)
(0.00966 0.5056035293739906)
(0.009680000000000001 0.5056151957865759)
(0.0097 0.5056268624683548)
(0.009720000000000001 0.5056385294193333)
(0.00974 0.5056501966395178)
(0.009760000000000001 0.5056618641289145)
(0.00978 0.5056735318875294)
(0.009800000000000001 0.505685199915369)
(0.00982 0.5056968682124392)
(0.009840000000000002 0.5057085367787465)
(0.00986 0.505720205614297)
(0.009880000000000002 0.5057318747190969)
(0.0099 0.5057435440931524)
(0.00992 0.5057552137364697)
(0.009940000000000001 0.5057668836490551)
(0.00996 0.5057785538309146)
(0.009980000000000001 0.5057902242820548)
(0.01 0.5058018950024815)
(0.010020000000000001 0.5058135659922012)
(0.01004 0.50582523725122)
(0.010060000000000001 0.5058369087795441)
(0.01008 0.5058485805771797)
(0.010100000000000001 0.5058602526441333)
(0.01012 0.5058719249804106)
(0.010140000000000001 0.5058835975860182)
(0.01016 0.505895270460962)
(0.010180000000000002 0.5059069436052487)
(0.0102 0.5059186170188841)
(0.010220000000000002 0.5059302907018746)
(0.01024 0.5059419646542263)
(0.01026 0.5059536388759454)
(0.010280000000000001 0.5059653133670382)
(0.0103 0.505976988127511)
(0.010320000000000001 0.5059886631573699)
(0.01034 0.5060003384566211)
(0.010360000000000001 0.5060120140252709)
(0.01038 0.5060236898633254)
(0.010400000000000001 0.5060353659707909)
(0.01042 0.5060470423476736)
(0.010440000000000001 0.5060587189939797)
(0.01046 0.5060703959097155)
(0.010480000000000001 0.5060820730948871)
(0.0105 0.5060937505495008)
(0.010520000000000002 0.5061054282735628)
(0.01054 0.5061171062670792)
(0.010560000000000002 0.5061287845300564)
(0.01058 0.5061404630625005)
(0.0106 0.5061521418644178)
(0.010620000000000001 0.5061638209358145)
(0.01064 0.5061755002766967)
(0.010660000000000001 0.5061871798870707)
(0.01068 0.5061988597669428)
(0.010700000000000001 0.5062105399163191)
(0.01072 0.5062222203352059)
(0.010740000000000001 0.5062339010236093)
(0.01076 0.5062455819815357)
(0.010780000000000001 0.5062572632089912)
(0.0108 0.506268944705982)
(0.010820000000000001 0.5062806264725144)
(0.01084 0.5062923085085946)
(0.010860000000000002 0.5063039908142287)
(0.01088 0.5063156733894232)
(0.010900000000000002 0.5063273562341839)
(0.010920000000000001 0.5063390393485174)
(0.01094 0.5063507227324298)
(0.010960000000000001 0.5063624063859272)
(0.01098 0.506374090309016)
(0.011000000000000001 0.5063857745017023)
(0.01102 0.5063974589639924)
(0.011040000000000001 0.5064091436958924)
(0.01106 0.5064208286974087)
(0.011080000000000001 0.5064325139685474)
(0.0111 0.5064441995093146)
(0.011120000000000001 0.5064558853197169)
(0.01114 0.5064675713997601)
(0.011160000000000002 0.5064792577494507)
(0.01118 0.5064909443687948)
(0.011200000000000002 0.5065026312577987)
(0.01122 0.5065143184164685)
(0.011240000000000002 0.5065260058448106)
(0.011260000000000001 0.5065376935428311)
(0.01128 0.5065493815105361)
(0.011300000000000001 0.5065610697479321)
(0.01132 0.5065727582550251)
(0.011340000000000001 0.5065844470318215)
(0.01136 0.5065961360783274)
(0.011380000000000001 0.5066078253945491)
(0.0114 0.5066195149804927)
(0.011420000000000001 0.5066312048361645)
(0.01144 0.5066428949615709)
(0.011460000000000001 0.5066545853567178)
(0.01148 0.5066662760216116)
(0.011500000000000002 0.5066779669562586)
(0.01152 0.5066896581606647)
(0.011540000000000002 0.5067013496348365)
(0.01156 0.50671304137878)
(0.011580000000000002 0.5067247333925017)
(0.011600000000000001 0.5067364256760074)
(0.01162 0.5067481182293037)
(0.011640000000000001 0.5067598110523965)
(0.01166 0.5067715041452924)
(0.011680000000000001 0.5067831975079973)
(0.0117 0.5067948911405176)
(0.011720000000000001 0.5068065850428595)
(0.01174 0.5068182792150291)
(0.011760000000000001 0.5068299736570328)
(0.01178 0.5068416683688768)
(0.011800000000000001 0.5068533633505672)
(0.01182 0.5068650586021103)
(0.011840000000000002 0.5068767541235124)
(0.01186 0.5068884499147797)
(0.011880000000000002 0.5069001459759183)
(0.0119 0.5069118423069345)
(0.011920000000000002 0.5069235389078346)
(0.011940000000000001 0.5069352357786248)
(0.01196 0.5069469329193111)
(0.011980000000000001 0.5069586303299002)
(0.012 0.5069703280103979)
(0.012020000000000001 0.5069820259608105)
(0.01204 0.5069937241811445)
(0.012060000000000001 0.5070054226714058)
(0.01208 0.5070171214316008)
(0.012100000000000001 0.5070288204617358)
(0.01212 0.5070405197618169)
(0.012140000000000001 0.5070522193318502)
(0.01216 0.5070639191718421)
(0.012180000000000002 0.5070756192817989)
(0.0122 0.5070873196617267)
(0.012220000000000002 0.5070990203116318)
(0.012240000000000001 0.5071107212315205)
(0.012260000000000002 0.5071224224213987)
(0.012280000000000001 0.507134123881273)
(0.0123 0.5071458256111494)
(0.012320000000000001 0.5071575276110343)
(0.01234 0.5071692298809338)
(0.012360000000000001 0.5071809324208543)
(0.01238 0.5071926352308017)
(0.012400000000000001 0.5072043383107826)
(0.01242 0.507216041660803)
(0.012440000000000001 0.5072277452808692)
(0.01246 0.5072394491709874)
(0.012480000000000002 0.507251153331164)
(0.0125 0.507262857761405)
(0.012520000000000002 0.5072745624617166)
(0.01254 0.5072862674321054)
(0.012560000000000002 0.5072979726725773)
(0.012580000000000001 0.5073096781831385)
(0.012600000000000002 0.5073213839637956)
(0.012620000000000001 0.5073330900145544)
(0.01264 0.5073447963354213)
(0.012660000000000001 0.5073565029264027)
(0.01268 0.5073682097875045)
(0.012700000000000001 0.5073799169187332)
(0.01272 0.507391624320095)
(0.012740000000000001 0.507403331991596)
(0.01276 0.5074150399332426)
(0.012780000000000001 0.5074267481450409)
(0.0128 0.5074384566269972)
(0.012820000000000002 0.5074501653791177)
(0.01284 0.5074618744014086)
(0.012860000000000002 0.5074735836938762)
(0.01288 0.5074852932565268)
(0.012900000000000002 0.5074970030893665)
(0.012920000000000001 0.5075087131924015)
(0.012940000000000002 0.5075204235656383)
(0.012960000000000001 0.5075321342090828)
(0.01298 0.5075438451227415)
(0.013000000000000001 0.5075555563066205)
(0.01302 0.507567267760726)
(0.013040000000000001 0.5075789794850644)
(0.01306 0.5075906914796418)
(0.013080000000000001 0.5076024037444644)
(0.0131 0.5076141162795386)
(0.013120000000000001 0.5076258290848704)
(0.01314 0.5076375421604663)
(0.013160000000000002 0.5076492555063324)
(0.01318 0.5076609691224749)
(0.013200000000000002 0.5076726830089001)
(0.01322 0.5076843971656142)
(0.013240000000000002 0.5076961115926235)
(0.013260000000000001 0.5077078262899342)
(0.013280000000000002 0.5077195412575525)
(0.013300000000000001 0.5077312564954847)
(0.01332 0.507742972003737)
(0.013340000000000001 0.5077546877823156)
(0.01336 0.5077664038312267)
(0.013380000000000001 0.5077781201504767)
(0.0134 0.5077898367400718)
(0.013420000000000001 0.5078015536000182)
(0.01344 0.5078132707303221)
(0.013460000000000001 0.5078249881309898)
(0.01348 0.5078367058020274)
(0.013500000000000002 0.5078484237434414)
(0.01352 0.5078601419552378)
(0.013540000000000002 0.5078718604374229)
(0.013560000000000001 0.507883579190003)
(0.013580000000000002 0.5078952982129844)
(0.013600000000000001 0.5079070175063731)
(0.013620000000000002 0.5079187370701755)
(0.013640000000000001 0.5079304569043979)
(0.01366 0.5079421770090464)
(0.013680000000000001 0.5079538973841273)
(0.0137 0.5079656180296468)
(0.013720000000000001 0.5079773389456113)
(0.01374 0.5079890601320268)
(0.013760000000000001 0.5080007815888997)
(0.01378 0.5080125033162363)
(0.013800000000000002 0.5080242253140427)
(0.01382 0.5080359475823251)
(0.013840000000000002 0.5080476701210899)
(0.01386 0.5080593929303432)
(0.013880000000000002 0.5080711160100914)
(0.013900000000000001 0.5080828393603405)
(0.013920000000000002 0.508094562981097)
(0.013940000000000001 0.508106286872367)
(0.013960000000000002 0.5081180110341568)
(0.013980000000000001 0.5081297354664727)
(0.014 0.5081414601693207)
(0.014020000000000001 0.5081531851427072)
(0.01404 0.5081649103866386)
(0.014060000000000001 0.5081766359011208)
(0.01408 0.5081883616861604)
(0.014100000000000001 0.5082000877417634)
(0.01412 0.5082118140679361)
(0.014140000000000002 0.5082235406646848)
(0.01416 0.5082352675320156)
(0.014180000000000002 0.508246994669935)
(0.0142 0.5082587220784489)
(0.014220000000000002 0.5082704497575639)
(0.014240000000000001 0.508282177707286)
(0.014260000000000002 0.5082939059276216)
(0.014280000000000001 0.5083056344185767)
(0.014300000000000002 0.5083173631801579)
(0.014320000000000001 0.5083290922123711)
(0.01434 0.5083408215152228)
(0.014360000000000001 0.508352551088719)
(0.01438 0.5083642809328662)
(0.014400000000000001 0.5083760110476705)
(0.01442 0.5083877414331383)
(0.014440000000000001 0.5083994720892755)
(0.01446 0.5084112030160888)
(0.014480000000000002 0.5084229342135841)
(0.0145 0.5084346656817677)
(0.014520000000000002 0.508446397420646)
(0.01454 0.5084581294302251)
(0.014560000000000002 0.5084698617105113)
(0.014580000000000001 0.5084815942615108)
(0.014600000000000002 0.50849332708323)
(0.014620000000000001 0.508505060175675)
(0.014640000000000002 0.508516793538852)
(0.014660000000000001 0.5085285271727674)
(0.01468 0.5085402610774274)
(0.014700000000000001 0.5085519952528382)
(0.01472 0.5085637296990061)
(0.014740000000000001 0.5085754644159374)
(0.01476 0.5085871994036381)
(0.014780000000000001 0.5085989346621147)
(0.0148 0.5086106701913733)
(0.014820000000000002 0.5086224059914203)
(0.01484 0.5086341420622619)
(0.014860000000000002 0.5086458784039042)
(0.01488 0.5086576150163535)
(0.014900000000000002 0.5086693518996163)
(0.014920000000000001 0.5086810890536985)
(0.014940000000000002 0.5086928264786065)
(0.014960000000000001 0.5087045641743466)
(0.014980000000000002 0.508716302140925)
(0.015000000000000001 0.508728040378348)
(0.01502 0.5087397788866217)
(0.015040000000000001 0.5087515176657526)
(0.01506 0.5087632567157466)
(0.015080000000000001 0.5087749960366104)
(0.0151 0.5087867356283498)
(0.015120000000000001 0.5087984754909712)
(0.01514 0.5088102156244811)
(0.015160000000000002 0.5088219560288855)
(0.01518 0.5088336967041907)
(0.015200000000000002 0.5088454376504028)
(0.015220000000000001 0.5088571788675283)
(0.015240000000000002 0.5088689203555734)
(0.015260000000000001 0.5088806621145443)
(0.015280000000000002 0.5088924041444473)
(0.015300000000000001 0.5089041464452885)
(0.015320000000000002 0.5089158890170743)
(0.015340000000000001 0.5089276318598109)
(0.015360000000000002 0.5089393749735046)
(0.015380000000000001 0.5089511183581616)
(0.0154 0.5089628620137883)
(0.015420000000000001 0.5089746059403906)
(0.01544 0.5089863501379751)
(0.015460000000000002 0.5089980946065479)
(0.01548 0.5090098393461152)
(0.015500000000000002 0.5090215843566834)
(0.01552 0.5090333296382588)
(0.015540000000000002 0.5090450751908474)
(0.015560000000000001 0.5090568210144556)
(0.015580000000000002 0.5090685671090897)
(0.015600000000000001 0.5090803134747559)
(0.015620000000000002 0.5090920601114604)
(0.01564 0.5091038070192095)
(0.01566 0.5091155541980095)
(0.015680000000000003 0.5091273016478667)
(0.015700000000000002 0.5091390493687871)
(0.01572 0.5091507973607772)
(0.01574 0.5091625456238432)
(0.01576 0.5091742941579913)
(0.015780000000000002 0.5091860429632279)
(0.0158 0.5091977920395591)
(0.01582 0.509209541386991)
(0.01584 0.5092212910055303)
(0.015860000000000003 0.509233040895183)
(0.015880000000000002 0.5092447910559552)
(0.0159 0.5092565414878534)
(0.01592 0.5092682921908838)
(0.015940000000000003 0.5092800431650526)
(0.015960000000000002 0.5092917944103662)
(0.01598 0.5093035459268306)
(0.016 0.5093152977144523)
(0.016020000000000003 0.5093270497732374)
(0.016040000000000002 0.5093388021031923)
(0.01606 0.5093505547043231)
(0.01608 0.5093623075766361)
(0.0161 0.5093740607201377)
(0.016120000000000002 0.509385814134834)
(0.01614 0.5093975678207313)
(0.01616 0.5094093217778358)
(0.01618 0.5094210760061539)
(0.016200000000000003 0.5094328305056918)
(0.016220000000000002 0.5094445852764558)