/*--------------------------------*- C++ -*----------------------------------*\
| =========                 |                                                 |
| \\      /  F ield         | OpenFOAM: The Open Source CFD Toolbox           |
|  \\    /   O peration     | Version:  v2306                                 |
|   \\  /    A nd           | Website:  www.openfoam.com                      |
|    \\/     M anipulation  |                                                 |
\*---------------------------------------------------------------------------*/
FoamFile
{
    version     2.0;
    format      ascii;
    class       volScalarField;
    object      n2;
}
// * * * * * * * * * * * * * * * * * * * * * * * * * * * * * * * * * * * * * //

dimensions      [0 0 0 0 0 0 0];

internalField  uniform 0.5;

boundaryField
{

    perim
    {
        type uniformFixedValue;
        uniformValue table
        (
(0.0 0.5)
(2e-05 0.49998846315074924)
(4e-05 0.49997692656769627)
(6.000000000000001e-05 0.4999653902508349)
(8e-05 0.4999538542001591)
(0.0001 0.4999423184156626)
(0.00012000000000000002 0.4999307828973393)
(0.00014000000000000001 0.49991924764518314)
(0.00016 0.4999077126591879)
(0.00018 0.4998961779393474)
(0.0002 0.49988464348565553)
(0.00022 0.49987310929810624)
(0.00024000000000000003 0.4998615753766933)
(0.00026000000000000003 0.49985004172141045)
(0.00028000000000000003 0.4998385083322519)
(0.00030000000000000003 0.49982697520921116)
(0.00032 0.49981544235228226)
(0.00034 0.499803909761459)
(0.00036 0.4997923774367353)
(0.00038 0.499780845378105)
(0.0004 0.499769313585562)
(0.00042 0.49975778205909993)
(0.00044 0.49974625079871293)
(0.00046 0.4997347198043947)
(0.00048000000000000007 0.4997231890761392)
(0.0005 0.4997116586139403)
(0.0005200000000000001 0.49970012841779177)
(0.00054 0.49968859848768743)
(0.0005600000000000001 0.4996770688236213)
(0.00058 0.49966553942558706)
(0.0006000000000000001 0.4996540102935788)
(0.00062 0.4996424814275902)
(0.00064 0.4996309528276152)
(0.0006600000000000001 0.4996194244936477)
(0.00068 0.4996078964256813)
(0.0007000000000000001 0.49959636862371026)
(0.00072 0.4995848410877282)
(0.0007400000000000001 0.499573313817729)
(0.00076 0.4995617868137066)
(0.0007800000000000001 0.4995502600756548)
(0.0008 0.49953873360356743)
(0.0008200000000000001 0.49952720739743844)
(0.00084 0.49951568145726166)
(0.0008600000000000001 0.4995041557830309)
(0.00088 0.4994926303747401)
(0.0009000000000000001 0.49948110523238315)
(0.00092 0.4994695803559538)
(0.0009400000000000001 0.499458055745446)
(0.0009600000000000001 0.4994465314008536)
(0.0009800000000000002 0.4994350073221704)
(0.001 0.4994234835093903)
(0.00102 0.49941195996250726)
(0.0010400000000000001 0.49940043668151507)
(0.0010600000000000002 0.49938891366640753)
(0.00108 0.4993773909171786)
(0.0011 0.4993658684338221)
(0.0011200000000000001 0.4993543462163319)
(0.0011400000000000002 0.4993428242647019)
(0.00116 0.4993313025789259)
(0.00118 0.49931978115899783)
(0.0012000000000000001 0.4993082600049115)
(0.0012200000000000002 0.49929673911666084)
(0.00124 0.4992852184942397)
(0.00126 0.49927369813764183)
(0.00128 0.49926217804686135)
(0.0013000000000000002 0.49925065822189185)
(0.0013200000000000002 0.4992391386627274)
(0.00134 0.49922761936936166)
(0.00136 0.49921610034178876)
(0.0013800000000000002 0.49920458158000236)
(0.0014000000000000002 0.4991930630839964)
(0.00142 0.49918154485376476)
(0.00144 0.49917002688930123)
(0.0014600000000000001 0.49915850919059984)
(0.0014800000000000002 0.4991469917576543)
(0.0015 0.4991354745904586)
(0.00152 0.49912395768900647)
(0.0015400000000000001 0.49911244105329194)
(0.0015600000000000002 0.49910092468330863)
(0.00158 0.49908940857905065)
(0.0016 0.49907789274051184)
(0.0016200000000000001 0.499066377167686)
(0.0016400000000000002 0.49905486186056697)
(0.0016600000000000002 0.49904334681914864)
(0.00168 0.499031832043425)
(0.0017000000000000001 0.49902031753338977)
(0.0017200000000000002 0.49900880328903685)
(0.0017400000000000002 0.49899728931036014)
(0.00176 0.49898577559735346)
(0.0017800000000000001 0.49897426215001084)
(0.0018000000000000002 0.498962748968326)
(0.0018200000000000002 0.4989512360522928)
(0.00184 0.4989397234019052)
(0.00186 0.498928211017157)
(0.0018800000000000002 0.4989166988980421)
(0.0019000000000000002 0.49890518704455433)
(0.0019200000000000003 0.4988936754566876)
(0.00194 0.4988821641344358)
(0.0019600000000000004 0.49887065307779277)
(0.00198 0.49885914228675243)
(0.002 0.4988476317613086)
(0.00202 0.4988361215014552)
(0.00204 0.4988246115071859)
(0.00206 0.49881310177849486)
(0.0020800000000000003 0.4988015923153758)
(0.0021000000000000003 0.49879008311782275)
(0.0021200000000000004 0.49877857418582927)
(0.00214 0.49876706551938943)
(0.00216 0.49875555711849723)
(0.00218 0.4987440489831463)
(0.0022 0.49873254111333065)
(0.00222 0.49872103350904406)
(0.0022400000000000002 0.4987095261702805)
(0.0022600000000000003 0.4986980190970339)
(0.0022800000000000003 0.4986865122892979)
(0.0023000000000000004 0.4986750057470665)
(0.00232 0.4986634994703337)
(0.00234 0.4986519934590932)
(0.00236 0.49864048771333896)
(0.00238 0.49862898223306484)
(0.0024000000000000002 0.4986174770182647)
(0.0024200000000000003 0.4986059720689323)
(0.0024400000000000003 0.4985944673850618)
(0.0024600000000000004 0.49858296296664684)
(0.00248 0.49857145881368137)
(0.0025 0.49855995492615923)
(0.00252 0.4985484513040744)
(0.00254 0.49853694794742054)
(0.00256 0.49852544485619177)
(0.0025800000000000003 0.4985139420303818)
(0.0026000000000000003 0.4985024394699846)
(0.0026200000000000004 0.498490937174994)
(0.0026400000000000004 0.4984794351454039)
(0.00266 0.4984679333812081)
(0.00268 0.4984564318824006)
(0.0027 0.4984449306489752)
(0.00272 0.4984334296809258)
(0.0027400000000000002 0.4984219289782463)
(0.0027600000000000003 0.4984104285409305)
(0.0027800000000000004 0.4983989283689723)
(0.0028000000000000004 0.49838742846236567)
(0.00282 0.4983759288211044)
(0.00284 0.49836442944518233)
(0.00286 0.49835293033459344)
(0.00288 0.49834143148933163)
(0.0029000000000000002 0.49832993290939054)
(0.0029200000000000003 0.4983184345947644)
(0.0029400000000000003 0.49830693654544667)
(0.0029600000000000004 0.4982954387614317)
(0.0029800000000000004 0.498283941242713)
(0.003 0.4982724439892846)
(0.00302 0.49826094700114043)
(0.00304 0.49824945027827416)
(0.0030600000000000002 0.49823795382068)
(0.0030800000000000003 0.4982264576283515)
(0.0031000000000000003 0.49821496170128277)
(0.0031200000000000004 0.4982034660394675)
(0.0031400000000000004 0.49819197064289966)
(0.00316 0.4981804755115732)
(0.00318 0.4981689806454819)
(0.0032 0.4981574860446196)
(0.00322 0.4981459917089804)
(0.0032400000000000003 0.49813449763855794)
(0.0032600000000000003 0.4981230038333463)
(0.0032800000000000004 0.49811151029333905)
(0.0033000000000000004 0.4981000170185304)
(0.0033200000000000005 0.4980885240089142)
(0.00334 0.49807703126448416)
(0.00336 0.49806553878523424)
(0.00338 0.49805404657115826)
(0.0034000000000000002 0.4980425546222503)
(0.0034200000000000003 0.49803106293850397)
(0.0034400000000000003 0.4980195715199134)
(0.0034600000000000004 0.4980080803664723)
(0.0034800000000000005 0.49799658947817455)
(0.0035 0.49798509885501413)
(0.00352 0.4979736084969849)
(0.00354 0.4979621184040807)
(0.0035600000000000002 0.4979506285762956)
(0.0035800000000000003 0.4979391390136231)
(0.0036000000000000003 0.4979276497160574)
(0.0036200000000000004 0.4979161606835923)
(0.0036400000000000004 0.4979046719162216)
(0.0036600000000000005 0.4978931834139393)
(0.00368 0.4978816951767393)
(0.0037 0.4978702072046154)
(0.00372 0.49785871949756144)
(0.0037400000000000003 0.4978472320555714)
(0.0037600000000000003 0.49783574487863913)
(0.0037800000000000004 0.4978242579667586)
(0.0038000000000000004 0.4978127713199234)
(0.0038200000000000005 0.49780128493812786)
(0.0038400000000000005 0.4977897988213655)
(0.00386 0.4977783129696304)
(0.00388 0.49776682738291633)
(0.0039000000000000003 0.49775534206121724)
(0.003920000000000001 0.497743857004527)
(0.00394 0.4977323722128395)
(0.00396 0.4977208876861486)
(0.00398 0.4977094034244482)
(0.004 0.4976979194277322)
(0.00402 0.4976864356959945)
(0.00404 0.4976749522292289)
(0.00406 0.4976634690274295)
(0.00408 0.4976519860905899)
(0.0041 0.4976405034187042)
(0.00412 0.49762902101176615)
(0.0041400000000000005 0.4976175388697698)
(0.0041600000000000005 0.4976060569927088)
(0.0041800000000000006 0.4975945753805773)
(0.004200000000000001 0.4975830940333689)
(0.004220000000000001 0.4975716129510777)
(0.004240000000000001 0.4975601321336976)
(0.004260000000000001 0.49754865158122236)
(0.00428 0.49753717129364594)
(0.0043 0.4975256912709622)
(0.00432 0.497514211513165)
(0.00434 0.49750273202024836)
(0.00436 0.4974912527922061)
(0.00438 0.497479773829032)
(0.0044 0.49746829513072)
(0.00442 0.49745681669726416)
(0.00444 0.4974453385286582)
(0.00446 0.497433860624896)
(0.0044800000000000005 0.49742238298597147)
(0.0045000000000000005 0.49741090561187856)
(0.004520000000000001 0.4973994285026111)
(0.004540000000000001 0.497387951658163)
(0.004560000000000001 0.49737647507852817)
(0.004580000000000001 0.49736499876370044)
(0.004600000000000001 0.4973535227136738)
(0.00462 0.497342046928442)
(0.00464 0.497330571407999)
(0.00466 0.4973190961523387)
(0.00468 0.49730762116145516)
(0.0047 0.4972961464353419)
(0.00472 0.4972846719739931)
(0.00474 0.49727319777740264)
(0.00476 0.49726172384556416)
(0.00478 0.4972502501784718)
(0.0048000000000000004 0.49723877677611933)
(0.0048200000000000005 0.4972273036385008)
(0.0048400000000000006 0.49721583076560993)
(0.004860000000000001 0.4972043581574407)
(0.004880000000000001 0.4971928858139869)
(0.004900000000000001 0.49718141373524255)
(0.004920000000000001 0.49716994192120145)
(0.004940000000000001 0.49715847037185756)
(0.00496 0.4971469990872047)
(0.00498 0.4971355280672368)
(0.005 0.49712405731194786)
(0.00502 0.4971125868213315)
(0.00504 0.4971011165953819)
(0.00506 0.49708964663409283)
(0.00508 0.4970781769374582)
(0.0051 0.4970667075054718)
(0.00512 0.4970552383381277)
(0.0051400000000000005 0.4970437694354197)
(0.0051600000000000005 0.49703230079734173)
(0.005180000000000001 0.4970208324238876)
(0.005200000000000001 0.49700936431505127)
(0.005220000000000001 0.49699789647082665)
(0.005240000000000001 0.4969864288912076)
(0.005260000000000001 0.496974961576188)
(0.005280000000000001 0.4969634945257618)
(0.0053 0.4969520277399228)
(0.00532 0.49694056121866503)
(0.00534 0.49692909496198234)
(0.00536 0.4969176289698685)
(0.00538 0.49690616324231757)
(0.0054 0.4968946977793234)
(0.00542 0.49688323258087985)
(0.00544 0.4968717676469808)
(0.0054600000000000004 0.49686030297762024)
(0.0054800000000000005 0.49684883857279194)
(0.0055000000000000005 0.4968373744324899)
(0.005520000000000001 0.49682591055670794)
(0.005540000000000001 0.49681444694544)
(0.005560000000000001 0.49680298359867997)
(0.005580000000000001 0.4967915205164218)
(0.005600000000000001 0.4967800576986593)
(0.005620000000000001 0.4967685951453864)
(0.00564 0.49675713285659695)
(0.00566 0.49674567083228494)
(0.00568 0.49673420907244425)
(0.0057 0.49672274757706875)
(0.00572 0.4967112863461523)
(0.00574 0.4966998253796888)
(0.00576 0.4966883646776723)
(0.00578 0.49667690424009653)
(0.0058000000000000005 0.4966654440669554)
(0.0058200000000000005 0.49665398415824286)
(0.005840000000000001 0.49664252451395274)
(0.005860000000000001 0.4966310651340792)
(0.005880000000000001 0.49661960601861577)
(0.005900000000000001 0.4966081471675566)
(0.005920000000000001 0.49659668858089534)
(0.005940000000000001 0.4965852302586262)
(0.005960000000000001 0.49657377220074295)
(0.00598 0.4965623144072394)
(0.006 0.49655085687810957)
(0.00602 0.4965393996133473)
(0.00604 0.4965279426129465)
(0.00606 0.49651648587690106)
(0.00608 0.49650502940520486)
(0.0061 0.4964935731978519)
(0.0061200000000000004 0.49648211725483604)
(0.0061400000000000005 0.4964706615761511)
(0.0061600000000000005 0.496459206161791)
(0.006180000000000001 0.49644775101174976)
(0.006200000000000001 0.4964362961260212)
(0.006220000000000001 0.4964248415045991)
(0.006240000000000001 0.4964133871474776)
(0.006260000000000001 0.49640193305465047)
(0.006280000000000001 0.49639047922611157)
(0.006300000000000001 0.4963790256618549)
(0.00632 0.4963675723618743)
(0.00634 0.49635611932616375)
(0.00636 0.496344666554717)
(0.00638 0.49633321404752806)
(0.0064 0.49632176180459087)
(0.00642 0.4963103098258993)
(0.00644 0.4962988581114471)
(0.0064600000000000005 0.4962874066612284)
(0.0064800000000000005 0.496275955475237)
(0.006500000000000001 0.4962645045534668)
(0.006520000000000001 0.49625305389591173)
(0.006540000000000001 0.4962416035025657)
(0.006560000000000001 0.4962301533734226)
(0.006580000000000001 0.4962187035084762)
(0.006600000000000001 0.4962072539077207)
(0.006620000000000001 0.49619580457114976)
(0.006640000000000001 0.4961843554987574)
(0.00666 0.49617290669053743)
(0.00668 0.49616145814648377)
(0.0067 0.49615000986659047)
(0.00672 0.4961385618508513)
(0.00674 0.49612711409926014)
(0.00676 0.496115666611811)
(0.0067800000000000004 0.4961042193884978)
(0.0068000000000000005 0.49609277242931427)
(0.0068200000000000005 0.4960813257342545)
(0.006840000000000001 0.4960698793033122)
(0.006860000000000001 0.4960584331364815)
(0.006880000000000001 0.4960469872337562)
(0.006900000000000001 0.4960355415951302)
(0.006920000000000001 0.4960240962205973)
(0.006940000000000001 0.49601265111015164)
(0.006960000000000001 0.496001206263787)
(0.006980000000000001 0.4959897616814972)
(0.007 0.4959783173632764)
(0.00702 0.4959668733091183)
(0.00704 0.49595542951901683)
(0.00706 0.49594398599296596)
(0.00708 0.49593254273095944)
(0.0071 0.4959210997329913)
(0.0071200000000000005 0.4959096569990556)
(0.0071400000000000005 0.49589821452914595)
(0.0071600000000000006 0.49588677232325656)
(0.007180000000000001 0.495875330381381)
(0.007200000000000001 0.4958638887035135)
(0.007220000000000001 0.4958524472896478)
(0.007240000000000001 0.4958410061397778)
(0.007260000000000001 0.49582956525389743)
(0.007280000000000001 0.49581812463200065)
(0.007300000000000001 0.4958066842740813)
(0.007320000000000001 0.49579524418013327)
(0.00734 0.49578380435015057)
(0.00736 0.49577236478412706)
(0.00738 0.49576092548205664)
(0.0074 0.4957494864439333)
(0.00742 0.4957380476697507)
(0.00744 0.4957266091595032)
(0.0074600000000000005 0.4957151709131842)
(0.0074800000000000005 0.4957037329307879)
(0.007500000000000001 0.4956922952123082)
(0.007520000000000001 0.49568085775773896)
(0.007540000000000001 0.4956694205670741)
(0.007560000000000001 0.49565798364030755)
(0.007580000000000001 0.49564654697743304)
(0.007600000000000001 0.49563511057844484)
(0.007620000000000001 0.49562367444333655)
(0.007640000000000001 0.49561223857210224)
(0.007660000000000001 0.4956008029647358)
(0.007680000000000001 0.49558936762123107)
(0.0077 0.495577932541582)
(0.00772 0.49556649772578254)
(0.00774 0.4955550631738266)
(0.00776 0.495543628885708)
(0.0077800000000000005 0.49553219486142075)
(0.0078000000000000005 0.4955207611009588)
(0.00782 0.4955093276043159)
(0.007840000000000001 0.495497894371486)
(0.00786 0.49548646140246316)
(0.00788 0.49547502869724114)
(0.0079 0.49546359625581404)
(0.00792 0.4954521640781755)
(0.007940000000000001 0.4954407321643196)
(0.00796 0.4954293005142403)
(0.007980000000000001 0.4954178691279314)
(0.008 0.4954064380053869)
(0.008020000000000001 0.4953950071466006)
(0.00804 0.4953835765515666)
(0.008060000000000001 0.49537214622027864)
(0.00808 0.4953607161527307)
(0.008100000000000001 0.4953492863489167)
(0.00812 0.4953378568088305)
(0.008140000000000001 0.49532642753246614)
(0.00816 0.4953149985198174)
(0.008180000000000002 0.49530356977087825)
(0.0082 0.49529214128564275)
(0.00822 0.4952807130641045)
(0.00824 0.4952692851062576)
(0.00826 0.49525785741209605)
(0.008280000000000001 0.4952464299816136)
(0.0083 0.4952350028148043)
(0.008320000000000001 0.49522357591166194)
(0.00834 0.4952121492721805)
(0.008360000000000001 0.4952007228963539)
(0.00838 0.49518929678417606)
(0.008400000000000001 0.49517787093564086)
(0.00842 0.4951664453507423)
(0.008440000000000001 0.4951550200294742)
(0.00846 0.4951435949718305)
(0.008480000000000001 0.4951321701778052)
(0.0085 0.49512074564739217)
(0.008520000000000002 0.49510932138058517)
(0.00854 0.49509789737737836)
(0.00856 0.49508647363776553)
(0.00858 0.49507505016174064)
(0.0086 0.4950636269492977)
(0.008620000000000001 0.49505220400043026)
(0.00864 0.4950407813151327)
(0.008660000000000001 0.49502935889339866)
(0.00868 0.49501793673522215)
(0.008700000000000001 0.4950065148405971)
(0.00872 0.49499509320951746)
(0.008740000000000001 0.49498367184197695)
(0.00876 0.4949722507379697)
(0.008780000000000001 0.4949608298974895)
(0.0088 0.49494940932053044)
(0.008820000000000001 0.49493798900708624)
(0.00884 0.49492656895715104)
(0.008860000000000002 0.49491514917071844)
(0.00888 0.4949037296477826)
(0.0089 0.4948923103883375)
(0.00892 0.49488089139237684)
(0.00894 0.4948694726598947)
(0.008960000000000001 0.4948580541908849)
(0.00898 0.4948466359853415)
(0.009000000000000001 0.4948352180432583)
(0.00902 0.49482380036462925)
(0.009040000000000001 0.4948123829494483)
(0.00906 0.4948009657977092)
(0.009080000000000001 0.4947895489094062)
(0.0091 0.49477813228453293)
(0.009120000000000001 0.49476671592308347)
(0.00914 0.4947552998250517)
(0.009160000000000001 0.49474388399043157)
(0.00918 0.4947324684192168)
(0.009200000000000002 0.49472105311140163)
(0.00922 0.49470963806697976)
(0.00924 0.4946982232859452)
(0.009260000000000001 0.49468680876829185)
(0.00928 0.49467539451401366)
(0.009300000000000001 0.49466398052310456)
(0.00932 0.49465256679555836)
(0.009340000000000001 0.49464115333136915)
(0.00936 0.49462974013053074)
(0.009380000000000001 0.4946183271930371)
(0.0094 0.4946069145188821)
(0.009420000000000001 0.49459550210805975)
(0.00944 0.4945840899605639)
(0.009460000000000001 0.49457267807638844)
(0.00948 0.4945612664555275)
(0.009500000000000001 0.4945498550979748)
(0.00952 0.49453844400372426)
(0.009540000000000002 0.4945270331727699)
(0.00956 0.4945156226051056)
(0.00958 0.49450421230072533)
(0.009600000000000001 0.49449280225962305)
(0.00962 0.4944813924817925)
(0.009640000000000001 0.4944699829672278)
(0.00966 0.4944585737159227)
(0.009680000000000001 0.4944471647278713)
(0.0097 0.49443575600306744)
(0.009720000000000001 0.49442434754150505)
(0.00974 0.4944129393431781)
(0.009760000000000001 0.49440153140808046)
(0.00978 0.4943901237362061)
(0.009800000000000001 0.4943787163275488)
(0.00982 0.4943673091821027)
(0.009840000000000002 0.49435590229986165)
(0.00986 0.4943444956808195)
(0.009880000000000002 0.49433308932497033)
(0.0099 0.4943216832323079)
(0.00992 0.49431027740282624)
(0.009940000000000001 0.49429887183651927)
(0.00996 0.4942874665333809)
(0.009980000000000001 0.494276061493405)
(0.01 0.4942646567165856)
(0.010020000000000001 0.49425325220291655)
(0.01004 0.4942418479523918)
(0.010060000000000001 0.4942304439650053)
(0.01008 0.49421904024075103)
(0.010100000000000001 0.49420763677962276)
(0.01012 0.4941962335816145)
(0.010140000000000001 0.49418483064672036)
(0.01016 0.4941734279749339)
(0.010180000000000002 0.4941620255662494)
(0.0102 0.4941506234206607)
(0.010220000000000002 0.4941392215381615)
(0.01024 0.49412781991874594)
(0.01026 0.4941164185624079)
(0.010280000000000001 0.49410501746914137)
(0.0103 0.49409361663894014)
(0.010320000000000001 0.4940822160717983)
(0.01034 0.4940708157677098)
(0.010360000000000001 0.4940594157266682)
(0.01038 0.494048015948668)
(0.010400000000000001 0.4940366164337027)
(0.01042 0.4940252171817664)
(0.010440000000000001 0.494013818192853)
(0.01046 0.49400241946695644)
(0.010480000000000001 0.49399102100407066)
(0.0105 0.49397962280418956)
(0.010520000000000002 0.4939682248673071)
(0.01054 0.49395682719341716)
(0.010560000000000002 0.49394542978251377)
(0.01058 0.49393403263459074)
(0.0106 0.49392263574964207)
(0.010620000000000001 0.49391123912766166)
(0.01064 0.49389984276864357)
(0.010660000000000001 0.4938884466725816)
(0.01068 0.4938770508394697)
(0.010700000000000001 0.4938656552693018)
(0.01072 0.4938542599620719)
(0.010740000000000001 0.4938428649177738)
(0.01076 0.49383147013640155)
(0.010780000000000001 0.4938200756179491)
(0.0108 0.4938086813624103)
(0.010820000000000001 0.49379728736977907)
(0.01084 0.49378589364004943)
(0.010860000000000002 0.49377450017321534)
(0.01088 0.49376310696927056)
(0.010900000000000002 0.4937517140282093)
(0.010920000000000001 0.4937403213500251)
(0.01094 0.49372892893471226)
(0.010960000000000001 0.49371753678226454)
(0.01098 0.49370614489267584)
(0.011000000000000001 0.4936947532659403)
(0.01102 0.4936833619020516)
(0.011040000000000001 0.49367197080100395)
(0.01106 0.493660579962791)
(0.011080000000000001 0.4936491893874069)
(0.0111 0.49363779907484545)
(0.011120000000000001 0.49362640902510063)
(0.01114 0.49361501923816636)
(0.011160000000000002 0.4936036297140367)
(0.01118 0.4935922404527054)
(0.011200000000000002 0.49358085145416647)
(0.01122 0.49356946271841395)
(0.011240000000000002 0.4935580742454416)
(0.011260000000000001 0.4935466860352435)
(0.01128 0.4935352980878135)
(0.011300000000000001 0.4935239104031456)
(0.01132 0.4935125229812336)
(0.011340000000000001 0.4935011358220716)
(0.01136 0.4934897489256535)
(0.011380000000000001 0.4934783622919733)
(0.0114 0.4934669759210247)
(0.011420000000000001 0.49345558981280185)
(0.01144 0.4934442039672986)
(0.011460000000000001 0.4934328183845089)
(0.01148 0.4934214330644268)
(0.011500000000000002 0.4934100480070461)
(0.01152 0.4933986632123607)
(0.011540000000000002 0.4933872786803647)
(0.01156 0.493375894411052)
(0.011580000000000002 0.4933645104044164)
(0.011600000000000001 0.49335312666045195)
(0.01162 0.49334174317915264)
(0.011640000000000001 0.4933303599605124)
(0.01166 0.4933189770045249)
(0.011680000000000001 0.49330759431118454)
(0.0117 0.49329621188048484)
(0.011720000000000001 0.49328482971241994)
(0.01174 0.49327344780698384)
(0.011760000000000001 0.4932620661641703)
(0.01178 0.4932506847839733)
(0.011800000000000001 0.493239303666387)
(0.01182 0.4932279228114051)
(0.011840000000000002 0.49321654221902156)
(0.01186 0.4932051618892305)
(0.011880000000000002 0.49319378182202567)
(0.0119 0.4931824020174011)
(0.011920000000000002 0.4931710224753507)
(0.011940000000000001 0.4931596431958684)
(0.01196 0.4931482641789482)
(0.011980000000000001 0.493136885424584)
(0.012 0.49312550693276974)
(0.012020000000000001 0.49311412870349935)
(0.01204 0.49310275073676685)
(0.012060000000000001 0.49309137303256606)
(0.01208 0.493079995590891)
(0.012100000000000001 0.4930686184117356)
(0.01212 0.4930572414950938)
(0.012140000000000001 0.4930458648409596)
(0.01216 0.4930344884493268)
(0.012180000000000002 0.49302311232018947)
(0.0122 0.4930117364535415)
(0.012220000000000002 0.4930003608493769)
(0.012240000000000001 0.4929889855076895)
(0.012260000000000002 0.49297761042847327)
(0.012280000000000001 0.4929662356117223)
(0.0123 0.49295486105743036)
(0.012320000000000001 0.4929434867655915)
(0.01234 0.4929321127361996)
(0.012360000000000001 0.4929207389692486)
(0.01238 0.49290936546473246)
(0.012400000000000001 0.49289799222264513)
(0.01242 0.4928866192429806)
(0.012440000000000001 0.4928752465257328)
(0.01246 0.4928638740708956)
(0.012480000000000002 0.49285250187846297)
(0.0125 0.49284112994842894)
(0.012520000000000002 0.49282975828078734)
(0.01254 0.49281838687553225)
(0.012560000000000002 0.49280701573265745)
(0.012580000000000001 0.492795644852157)
(0.012600000000000002 0.49278427423402477)
(0.012620000000000001 0.49277290387825484)
(0.01264 0.49276153378484105)
(0.012660000000000001 0.4927501639537773)
(0.01268 0.4927387943850577)
(0.012700000000000001 0.49272742507867606)
(0.01272 0.49271605603462637)
(0.012740000000000001 0.4927046872529026)
(0.01276 0.49269331873349864)
(0.012780000000000001 0.49268195047640845)
(0.0128 0.49267058248162604)
(0.012820000000000002 0.4926592147491453)
(0.01284 0.49264784727896016)
(0.012860000000000002 0.49263648007106464)
(0.01288 0.49262511312545265)
(0.012900000000000002 0.4926137464421181)
(0.012920000000000001 0.49260238002105505)
(0.012940000000000002 0.49259101386225723)
(0.012960000000000001 0.4925796479657189)
(0.01298 0.4925682823314337)
(0.013000000000000001 0.49255691695939574)
(0.01302 0.49254555184959903)
(0.013040000000000001 0.4925341870020374)
(0.01306 0.49252282241670475)
(0.013080000000000001 0.49251145809359526)
(0.0131 0.4925000940327026)
(0.013120000000000001 0.49248873023402095)
(0.01314 0.49247736669754416)
(0.013160000000000002 0.49246600342326613)
(0.01318 0.4924546404111809)
(0.013200000000000002 0.4924432776612824)
(0.01322 0.4924319151735645)
(0.013240000000000002 0.4924205529480213)
(0.013260000000000001 0.49240919098464664)
(0.013280000000000002 0.49239782928343445)
(0.013300000000000001 0.4923864678443788)
(0.01332 0.4923751066674735)
(0.013340000000000001 0.49236374575271263)
(0.01336 0.49235238510009005)
(0.013380000000000001 0.49234102470959973)
(0.0134 0.4923296645812356)
(0.013420000000000001 0.4923183047149918)
(0.01344 0.492306945110862)
(0.013460000000000001 0.49229558576884036)
(0.01348 0.49228422668892063)
(0.013500000000000002 0.492272867871097)
(0.01352 0.4922615093153632)
(0.013540000000000002 0.49225015102171343)
(0.013560000000000001 0.4922387929901414)
(0.013580000000000002 0.4922274352206413)
(0.013600000000000001 0.49221607771320675)
(0.013620000000000002 0.492204720467832)
(0.013640000000000001 0.492193363484511)
(0.01366 0.4921820067632374)
(0.013680000000000001 0.4921706503040055)
(0.0137 0.49215929410680914)
(0.013720000000000001 0.49214793817164215)
(0.01374 0.4921365824984986)
(0.013760000000000001 0.4921252270873725)
(0.01378 0.4921138719382577)
(0.013800000000000002 0.49210251705114816)
(0.01382 0.4920911624260379)
(0.013840000000000002 0.49207980806292084)
(0.01386 0.4920684539617909)
(0.013880000000000002 0.4920571001226421)
(0.013900000000000001 0.4920457465454683)
(0.013920000000000002 0.49203439323026354)
(0.013940000000000001 0.4920230401770218)
(0.013960000000000002 0.492011687385737)
(0.013980000000000001 0.492000334856403)
(0.014 0.4919889825890138)
(0.014020000000000001 0.49197763058356353)
(0.01404 0.491966278840046)
(0.014060000000000001 0.49195492735845514)
(0.01408 0.4919435761387849)
(0.014100000000000001 0.4919322251810293)
(0.01412 0.4919208744851823)
(0.014140000000000002 0.4919095240512379)
(0.01416 0.4918981738791899)
(0.014180000000000002 0.4918868239690323)
(0.0142 0.4918754743207592)
(0.014220000000000002 0.49186412493436443)
(0.014240000000000001 0.491852775809842)
(0.014260000000000002 0.4918414269471858)
(0.014280000000000001 0.49183007834638987)
(0.014300000000000002 0.49181873000744813)
(0.014320000000000001 0.49180738193035456)
(0.01434 0.4917960341151031)
(0.014360000000000001 0.49178468656168767)
(0.01438 0.4917733392701023)
(0.014400000000000001 0.4917619922403409)
(0.01442 0.4917506454723974)
(0.014440000000000001 0.49173929896626584)
(0.01446 0.49172795272194014)
(0.014480000000000002 0.4917166067394143)
(0.0145 0.49170526101868217)
(0.014520000000000002 0.49169391555973785)
(0.01454 0.4916825703625751)
(0.014560000000000002 0.49167122542718816)
(0.014580000000000001 0.4916598807535708)
(0.014600000000000002 0.491648536341717)
(0.014620000000000001 0.4916371921916208)
(0.014640000000000002 0.49162584830327605)
(0.014660000000000001 0.49161450467667667)
(0.01468 0.49160316131181686)
(0.014700000000000001 0.49159181820869036)
(0.01472 0.49158047536729116)
(0.014740000000000001 0.49156913278761327)
(0.01476 0.4915577904696507)
(0.014780000000000001 0.49154644841339734)
(0.0148 0.49153510661884714)
(0.014820000000000002 0.49152376508599416)
(0.01484 0.4915124238148322)
(0.014860000000000002 0.49150108280535537)
(0.01488 0.4914897420575575)
(0.014900000000000002 0.4914784015714327)
(0.014920000000000001 0.49146706134697477)
(0.014940000000000002 0.49145572138417787)
(0.014960000000000001 0.49144438168303584)
(0.014980000000000002 0.4914330422435426)
(0.015000000000000001 0.4914217030656922)
(0.01502 0.4914103641494786)
(0.015040000000000001 0.49139902549489567)
(0.01506 0.4913876871019375)
(0.015080000000000001 0.4913763489705979)
(0.0151 0.491365011100871)
(0.015120000000000001 0.49135367349275066)
(0.01514 0.49134233614623085)
(0.015160000000000002 0.4913309990613056)
(0.01518 0.49131966223796875)
(0.015200000000000002 0.49130832567621446)
(0.015220000000000001 0.49129698937603655)
(0.015240000000000002 0.49128565333742896)
(0.015260000000000001 0.49127431756038575)
(0.015280000000000002 0.4912629820449008)
(0.015300000000000001 0.49125164679096817)
(0.015320000000000002 0.49124031179858174)
(0.015340000000000001 0.49122897706773544)
(0.015360000000000002 0.4912176425984234)
(0.015380000000000001 0.49120630839063956)
(0.0154 0.49119497444437765)
(0.015420000000000001 0.49118364075963183)
(0.01544 0.4911723073363961)
(0.015460000000000002 0.4911609741746643)
(0.01548 0.49114964127443056)
(0.015500000000000002 0.4911383086356886)
(0.01552 0.49112697625843266)
(0.015540000000000002 0.49111564414265646)
(0.015560000000000001 0.4911043122883541)
(0.015580000000000002 0.4910929806955196)
(0.015600000000000001 0.49108164936414683)
(0.015620000000000002 0.4910703182942297)
(0.01564 0.4910589874857623)
(0.01566 0.49104765693873875)
(0.015680000000000003 0.4910363266531526)
(0.015700000000000002 0.49102499662899807)
(0.01572 0.4910136668662692)
(0.01574 0.4910023373649598)
(0.01576 0.4909910081250639)
(0.015780000000000002 0.4909796791465755)
(0.0158 0.49096835042948844)
(0.01582 0.49095702197379687)
(0.01584 0.49094569377949465)
(0.015860000000000003 0.49093436584657574)
(0.015880000000000002 0.4909230381750342)
(0.0159 0.4909117107648639)
(0.01592 0.4909003836160588)
(0.015940000000000003 0.490889056728613)
(0.015960000000000002 0.49087773010252034)
(0.01598 0.4908664037377749)