/*--------------------------------*- C++ -*----------------------------------*\
| =========                 |                                                 |
| \\      /  F ield         | OpenFOAM: The Open Source CFD Toolbox           |
|  \\    /   O peration     | Version:  v2306                                 |
|   \\  /    A nd           | Website:  www.openfoam.com                      |
|    \\/     M anipulation  |                                                 |
\*---------------------------------------------------------------------------*/
FoamFile
{
    version     2.0;
    format      ascii;
    class       volScalarField;
    object      Psi;
}
// * * * * * * * * * * * * * * * * * * * * * * * * * * * * * * * * * * * * * //

dimensions      [0 0 0 0 0 0 0];

internalField  uniform 0;

boundaryField
{
    perim
    {
        type uniformFixedValue;
        uniformValue table
        (
(0.0 -0.0)
(2e-05 -2.307396470339075e-05)
(4e-05 -4.61479294067815e-05)
(6.000000000000001e-05 -6.922189411017225e-05)
(8e-05 -9.2295858813563e-05)
(0.0001 -0.00011536982351695375)
(0.00012000000000000002 -0.0001384437882203445)
(0.00014000000000000001 -0.00016151775292373523)
(0.00016 -0.000184591717627126)
(0.00018 -0.00020766568233051674)
(0.0002 -0.0002307396470339075)
(0.00022 -0.00025381361173729827)
(0.00024000000000000003 -0.000276887576440689)
(0.00026000000000000003 -0.00029996154114407975)
(0.00028000000000000003 -0.00032303550584747046)
(0.00030000000000000003 -0.0003461094705508613)
(0.00032 -0.000369183435254252)
(0.00034 -0.0003922573999576427)
(0.00036 -0.0004153313646610335)
(0.00038 -0.0004384053293644242)
(0.0004 -0.000461479294067815)
(0.00042 -0.0004845532587712057)
(0.00044 -0.0005076272234745965)
(0.00046 -0.0005307011881779873)
(0.00048000000000000007 -0.000553775152881378)
(0.0005 -0.0005768491175847687)
(0.0005200000000000001 -0.0005999230822881595)
(0.00054 -0.0006229970469915502)
(0.0005600000000000001 -0.0006460710116949409)
(0.00058 -0.0006691449763983316)
(0.0006000000000000001 -0.0006922189411017226)
(0.00062 -0.0007152929058051133)
(0.00064 -0.000738366870508504)
(0.0006600000000000001 -0.0007614408352118947)
(0.00068 -0.0007845147999152854)
(0.0007000000000000001 -0.0008075887646186762)
(0.00072 -0.000830662729322067)
(0.0007400000000000001 -0.0008537366940254577)
(0.00076 -0.0008768106587288484)
(0.0007800000000000001 -0.0008998846234322393)
(0.0008 -0.00092295858813563)
(0.0008200000000000001 -0.0009460325528390207)
(0.00084 -0.0009691065175424114)
(0.0008600000000000001 -0.0009921804822458022)
(0.00088 -0.001015254446949193)
(0.0009000000000000001 -0.0010383284116525838)
(0.00092 -0.0010614023763559745)
(0.0009400000000000001 -0.0010844763410593652)
(0.0009600000000000001 -0.001107550305762756)
(0.0009800000000000002 -0.0011306242704661467)
(0.001 -0.0011536982351695374)
(0.00102 -0.001176772199872928)
(0.0010400000000000001 -0.001199846164576319)
(0.0010600000000000002 -0.0012229201292797097)
(0.00108 -0.0012459940939831004)
(0.0011 -0.0012690680586864911)
(0.0011200000000000001 -0.0012921420233898819)
(0.0011400000000000002 -0.0013152159880932728)
(0.00116 -0.0013382899527966633)
(0.00118 -0.0013613639175000542)
(0.0012000000000000001 -0.0013844378822034451)
(0.0012200000000000002 -0.0014075118469068356)
(0.00124 -0.0014305858116102266)
(0.00126 -0.001453659776313617)
(0.00128 -0.001476733741017008)
(0.0013000000000000002 -0.0014998077057203987)
(0.0013200000000000002 -0.0015228816704237894)
(0.00134 -0.0015459556351271803)
(0.00136 -0.0015690295998305708)
(0.0013800000000000002 -0.0015921035645339618)
(0.0014000000000000002 -0.0016151775292373525)
(0.00142 -0.0016382514939407432)
(0.00144 -0.001661325458644134)
(0.0014600000000000001 -0.0016843994233475246)
(0.0014800000000000002 -0.0017074733880509153)
(0.0015 -0.0017305473527543063)
(0.00152 -0.0017536213174576968)
(0.0015400000000000001 -0.0017766952821610877)
(0.0015600000000000002 -0.0017997692468644786)
(0.00158 -0.0018228432115678691)
(0.0016 -0.00184591717627126)
(0.0016200000000000001 -0.0018689911409746505)
(0.0016400000000000002 -0.0018920651056780415)
(0.0016600000000000002 -0.0019151390703814324)
(0.00168 -0.001938213035084823)
(0.0017000000000000001 -0.0019612869997882136)
(0.0017200000000000002 -0.0019843609644916043)
(0.0017400000000000002 -0.002007434929194995)
(0.00176 -0.002030508893898386)
(0.0017800000000000001 -0.0020535828586017765)
(0.0018000000000000002 -0.0020766568233051676)
(0.0018200000000000002 -0.002099730788008558)
(0.00184 -0.002122804752711949)
(0.00186 -0.0021458787174153397)
(0.0018800000000000002 -0.0021689526821187305)
(0.0019000000000000002 -0.002192026646822121)
(0.0019200000000000003 -0.002215100611525512)
(0.00194 -0.0022381745762289026)
(0.0019600000000000004 -0.0022612485409322933)
(0.00198 -0.002284322505635684)
(0.002 -0.0023073964703390747)
(0.00202 -0.002330470435042466)
(0.00204 -0.002353544399745856)
(0.00206 -0.0023766183644492473)
(0.0020800000000000003 -0.002399692329152638)
(0.0021000000000000003 -0.0024227662938560287)
(0.0021200000000000004 -0.0024458402585594194)
(0.00214 -0.00246891422326281)
(0.00216 -0.002491988187966201)
(0.00218 -0.0025150621526695916)
(0.0022 -0.0025381361173729823)
(0.00222 -0.002561210082076373)
(0.0022400000000000002 -0.0025842840467797637)
(0.0022600000000000003 -0.002607358011483155)
(0.0022800000000000003 -0.0026304319761865456)
(0.0023000000000000004 -0.0026535059408899363)
(0.00232 -0.0026765799055933266)
(0.00234 -0.0026996538702967177)
(0.00236 -0.0027227278350001084)
(0.00238 -0.002745801799703499)
(0.0024000000000000002 -0.0027688757644068903)
(0.0024200000000000003 -0.0027919497291102806)
(0.0024400000000000003 -0.0028150236938136713)
(0.0024600000000000004 -0.002838097658517062)
(0.00248 -0.002861171623220453)
(0.0025 -0.002884245587923844)
(0.00252 -0.002907319552627234)
(0.00254 -0.002930393517330625)
(0.00256 -0.002953467482034016)
(0.0025800000000000003 -0.0029765414467374067)
(0.0026000000000000003 -0.0029996154114407974)
(0.0026200000000000004 -0.0030226893761441877)
(0.0026400000000000004 -0.003045763340847579)
(0.00266 -0.0030688373055509695)
(0.00268 -0.0030919112702543607)
(0.0027 -0.0031149852349577514)
(0.00272 -0.0031380591996611417)
(0.0027400000000000002 -0.0031611331643645324)
(0.0027600000000000003 -0.0031842071290679235)
(0.0027800000000000004 -0.0032072810937713143)
(0.0028000000000000004 -0.003230355058474705)
(0.00282 -0.0032534290231780953)
(0.00284 -0.0032765029878814864)
(0.00286 -0.003299576952584877)
(0.00288 -0.003322650917288268)
(0.0029000000000000002 -0.003345724881991659)
(0.0029200000000000003 -0.0033687988466950492)
(0.0029400000000000003 -0.00339187281139844)
(0.0029600000000000004 -0.0034149467761018307)
(0.0029800000000000004 -0.003438020740805222)
(0.003 -0.0034610947055086125)
(0.00302 -0.0034841686702120032)
(0.00304 -0.0035072426349153935)
(0.0030600000000000002 -0.0035303165996187847)
(0.0030800000000000003 -0.0035533905643221754)
(0.0031000000000000003 -0.003576464529025566)
(0.0031200000000000004 -0.0035995384937289572)
(0.0031400000000000004 -0.0036226124584323475)
(0.00316 -0.0036456864231357382)
(0.00318 -0.003668760387839129)
(0.0032 -0.00369183435254252)
(0.00322 -0.003714908317245911)
(0.0032400000000000003 -0.003737982281949301)
(0.0032600000000000003 -0.0037610562466526922)
(0.0032800000000000004 -0.003784130211356083)
(0.0033000000000000004 -0.0038072041760594737)
(0.0033200000000000005 -0.003830278140762865)
(0.00334 -0.003853352105466255)
(0.00336 -0.003876426070169646)
(0.00338 -0.0038995000348730365)
(0.0034000000000000002 -0.003922573999576427)
(0.0034200000000000003 -0.003945647964279818)
(0.0034400000000000003 -0.003968721928983209)
(0.0034600000000000004 -0.0039917958936866)
(0.0034800000000000005 -0.00401486985838999)
(0.0035 -0.004037943823093381)
(0.00352 -0.004061017787796772)
(0.00354 -0.004084091752500163)
(0.0035600000000000002 -0.004107165717203553)
(0.0035800000000000003 -0.004130239681906944)
(0.0036000000000000003 -0.004153313646610335)
(0.0036200000000000004 -0.0041763876113137255)
(0.0036400000000000004 -0.004199461576017116)
(0.0036600000000000005 -0.004222535540720507)
(0.00368 -0.004245609505423898)
(0.0037 -0.004268683470127288)
(0.00372 -0.0042917574348306795)
(0.0037400000000000003 -0.00431483139953407)
(0.0037600000000000003 -0.004337905364237461)
(0.0037800000000000004 -0.004360979328940851)
(0.0038000000000000004 -0.004384053293644242)
(0.0038200000000000005 -0.0044071272583476335)
(0.0038400000000000005 -0.004430201223051024)
(0.00386 -0.004453275187754414)
(0.00388 -0.004476349152457805)
(0.0039000000000000003 -0.004499423117161196)
(0.003920000000000001 -0.004522497081864587)
(0.00394 -0.004545571046567978)
(0.00396 -0.004568645011271368)
(0.00398 -0.004591718975974759)
(0.004 -0.0046147929406781495)
(0.00402 -0.004637866905381541)
(0.00404 -0.004660940870084932)
(0.00406 -0.004684014834788322)
(0.00408 -0.004707088799491712)
(0.0041 -0.0047301627641951035)
(0.00412 -0.004753236728898495)
(0.0041400000000000005 -0.004776310693601885)
(0.0041600000000000005 -0.004799384658305276)
(0.0041800000000000006 -0.004822458623008666)
(0.004200000000000001 -0.0048455325877120575)
(0.004220000000000001 -0.004868606552415449)
(0.004240000000000001 -0.004891680517118839)
(0.004260000000000001 -0.004914754481822229)
(0.00428 -0.00493782844652562)
(0.0043 -0.0049609024112290115)
(0.00432 -0.004983976375932402)
(0.00434 -0.005007050340635793)
(0.00436 -0.005030124305339183)
(0.00438 -0.005053198270042574)
(0.0044 -0.005076272234745965)
(0.00442 -0.005099346199449356)
(0.00444 -0.005122420164152746)
(0.00446 -0.005145494128856137)
(0.0044800000000000005 -0.005168568093559527)
(0.0045000000000000005 -0.005191642058262919)
(0.004520000000000001 -0.00521471602296631)
(0.004540000000000001 -0.0052377899876697)
(0.004560000000000001 -0.005260863952373091)
(0.004580000000000001 -0.005283937917076482)
(0.004600000000000001 -0.005307011881779873)
(0.00462 -0.005330085846483263)
(0.00464 -0.005353159811186653)
(0.00466 -0.005376233775890044)
(0.00468 -0.005399307740593435)
(0.0047 -0.005422381705296826)
(0.00472 -0.005445455670000217)
(0.00474 -0.005468529634703608)
(0.00476 -0.005491603599406998)
(0.00478 -0.005514677564110389)
(0.0048000000000000004 -0.005537751528813781)
(0.0048200000000000005 -0.00556082549351717)
(0.0048400000000000006 -0.005583899458220561)
(0.004860000000000001 -0.005606973422923951)
(0.004880000000000001 -0.0056300473876273426)
(0.004900000000000001 -0.005653121352330734)
(0.004920000000000001 -0.005676195317034124)
(0.004940000000000001 -0.005699269281737515)
(0.00496 -0.005722343246440906)
(0.00498 -0.0057454172111442966)
(0.005 -0.005768491175847688)
(0.00502 -0.005791565140551077)
(0.00504 -0.005814639105254468)
(0.00506 -0.005837713069957859)
(0.00508 -0.00586078703466125)
(0.0051 -0.005883860999364641)
(0.00512 -0.005906934964068032)
(0.0051400000000000005 -0.005930008928771422)
(0.0051600000000000005 -0.005953082893474813)
(0.005180000000000001 -0.0059761568581782045)
(0.005200000000000001 -0.005999230822881595)
(0.005220000000000001 -0.006022304787584986)
(0.005240000000000001 -0.006045378752288375)
(0.005260000000000001 -0.0060684527169917665)
(0.005280000000000001 -0.006091526681695158)
(0.0053 -0.006114600646398549)
(0.00532 -0.006137674611101939)
(0.00534 -0.00616074857580533)
(0.00536 -0.006183822540508721)
(0.00538 -0.006206896505212112)
(0.0054 -0.006229970469915503)
(0.00542 -0.006253044434618894)
(0.00544 -0.006276118399322283)
(0.0054600000000000004 -0.0062991923640256745)
(0.0054800000000000005 -0.006322266328729065)
(0.0055000000000000005 -0.006345340293432456)
(0.005520000000000001 -0.006368414258135847)
(0.005540000000000001 -0.006391488222839237)
(0.005560000000000001 -0.0064145621875426285)
(0.005580000000000001 -0.00643763615224602)
(0.005600000000000001 -0.00646071011694941)
(0.005620000000000001 -0.006483784081652801)
(0.00564 -0.0065068580463561905)
(0.00566 -0.006529932011059582)
(0.00568 -0.006553005975762973)
(0.0057 -0.006576079940466363)
(0.00572 -0.006599153905169754)
(0.00574 -0.006622227869873145)
(0.00576 -0.006645301834576536)
(0.00578 -0.006668375799279927)
(0.0058000000000000005 -0.006691449763983318)
(0.0058200000000000005 -0.006714523728686708)
(0.005840000000000001 -0.0067375976933900985)
(0.005860000000000001 -0.006760671658093489)
(0.005880000000000001 -0.00678374562279688)
(0.005900000000000001 -0.006806819587500271)
(0.005920000000000001 -0.006829893552203661)
(0.005940000000000001 -0.0068529675169070525)
(0.005960000000000001 -0.006876041481610444)
(0.00598 -0.006899115446313834)
(0.006 -0.006922189411017225)
(0.00602 -0.006945263375720616)
(0.00604 -0.0069683373404240065)
(0.00606 -0.006991411305127397)
(0.00608 -0.007014485269830787)
(0.0061 -0.007037559234534178)
(0.0061200000000000004 -0.007060633199237569)
(0.0061400000000000005 -0.00708370716394096)
(0.0061600000000000005 -0.007106781128644351)
(0.006180000000000001 -0.007129855093347742)
(0.006200000000000001 -0.007152929058051132)
(0.006220000000000001 -0.007176003022754523)
(0.006240000000000001 -0.0071990769874579145)
(0.006260000000000001 -0.007222150952161304)
(0.006280000000000001 -0.007245224916864695)
(0.006300000000000001 -0.007268298881568085)
(0.00632 -0.0072913728462714765)
(0.00634 -0.007314446810974868)
(0.00636 -0.007337520775678258)
(0.00638 -0.007360594740381649)
(0.0064 -0.00738366870508504)
(0.00642 -0.0074067426697884305)
(0.00644 -0.007429816634491822)
(0.0064600000000000005 -0.007452890599195212)
(0.0064800000000000005 -0.007475964563898602)
(0.006500000000000001 -0.007499038528601993)
(0.006520000000000001 -0.0075221124933053845)
(0.006540000000000001 -0.007545186458008775)
(0.006560000000000001 -0.007568260422712166)
(0.006580000000000001 -0.007591334387415557)
(0.006600000000000001 -0.007614408352118947)
(0.006620000000000001 -0.0076374823168223385)
(0.006640000000000001 -0.00766055628152573)
(0.00666 -0.007683630246229119)
(0.00668 -0.00770670421093251)
(0.0067 -0.0077297781756359004)
(0.00672 -0.007752852140339292)
(0.00674 -0.007775926105042683)
(0.00676 -0.007799000069746073)
(0.0067800000000000004 -0.007822074034449464)
(0.0068000000000000005 -0.007845147999152854)
(0.0068200000000000005 -0.007868221963856246)
(0.006840000000000001 -0.007891295928559637)
(0.006860000000000001 -0.007914369893263027)
(0.006880000000000001 -0.007937443857966417)
(0.006900000000000001 -0.007960517822669808)
(0.006920000000000001 -0.0079835917873732)
(0.006940000000000001 -0.00800666575207659)
(0.006960000000000001 -0.00802973971677998)
(0.006980000000000001 -0.008052813681483372)
(0.007 -0.008075887646186762)
(0.00702 -0.008098961610890153)
(0.00704 -0.008122035575593545)
(0.00706 -0.008145109540296935)
(0.00708 -0.008168183505000325)
(0.0071 -0.008191257469703716)
(0.0071200000000000005 -0.008214331434407106)
(0.0071400000000000005 -0.008237405399110498)
(0.0071600000000000006 -0.008260479363813888)
(0.007180000000000001 -0.008283553328517278)
(0.007200000000000001 -0.00830662729322067)
(0.007220000000000001 -0.00832970125792406)
(0.007240000000000001 -0.008352775222627451)
(0.007260000000000001 -0.008375849187330843)
(0.007280000000000001 -0.008398923152034232)
(0.007300000000000001 -0.008421997116737624)
(0.007320000000000001 -0.008445071081441014)
(0.00734 -0.008468145046144404)
(0.00736 -0.008491219010847796)
(0.00738 -0.008514292975551186)
(0.0074 -0.008537366940254577)
(0.00742 -0.008560440904957969)
(0.00744 -0.008583514869661359)
(0.0074600000000000005 -0.00860658883436475)
(0.0074800000000000005 -0.00862966279906814)
(0.007500000000000001 -0.00865273676377153)
(0.007520000000000001 -0.008675810728474922)
(0.007540000000000001 -0.008698884693178312)
(0.007560000000000001 -0.008721958657881702)
(0.007580000000000001 -0.008745032622585094)
(0.007600000000000001 -0.008768106587288485)
(0.007620000000000001 -0.008791180551991875)
(0.007640000000000001 -0.008814254516695267)
(0.007660000000000001 -0.008837328481398657)
(0.007680000000000001 -0.008860402446102048)
(0.0077 -0.008883476410805438)
(0.00772 -0.008906550375508828)
(0.00774 -0.00892962434021222)
(0.00776 -0.00895269830491561)
(0.0077800000000000005 -0.008975772269619)
(0.0078000000000000005 -0.008998846234322393)
(0.00782 -0.009021920199025783)
(0.007840000000000001 -0.009044994163729173)
(0.00786 -0.009068068128432565)
(0.00788 -0.009091142093135956)
(0.0079 -0.009114216057839346)
(0.00792 -0.009137290022542736)
(0.007940000000000001 -0.009160363987246126)
(0.00796 -0.009183437951949518)
(0.007980000000000001 -0.009206511916652909)
(0.008 -0.009229585881356299)
(0.008020000000000001 -0.009252659846059691)
(0.00804 -0.009275733810763081)
(0.008060000000000001 -0.009298807775466471)
(0.00808 -0.009321881740169864)
(0.008100000000000001 -0.009344955704873252)
(0.00812 -0.009368029669576644)
(0.008140000000000001 -0.009391103634280034)
(0.00816 -0.009414177598983425)
(0.008180000000000002 -0.009437251563686817)
(0.0082 -0.009460325528390207)
(0.00822 -0.009483399493093597)
(0.00824 -0.00950647345779699)
(0.00826 -0.00952954742250038)
(0.008280000000000001 -0.00955262138720377)
(0.0083 -0.00957569535190716)
(0.008320000000000001 -0.009598769316610552)
(0.00834 -0.009621843281313942)
(0.008360000000000001 -0.009644917246017333)
(0.00838 -0.009667991210720725)
(0.008400000000000001 -0.009691065175424115)
(0.00842 -0.009714139140127505)
(0.008440000000000001 -0.009737213104830897)
(0.00846 -0.009760287069534287)
(0.008480000000000001 -0.009783361034237678)
(0.0085 -0.009806434998941068)
(0.008520000000000002 -0.009829508963644458)
(0.00854 -0.00985258292834785)
(0.00856 -0.00987565689305124)
(0.00858 -0.009898730857754631)
(0.0086 -0.009921804822458023)
(0.008620000000000001 -0.009944878787161413)
(0.00864 -0.009967952751864803)
(0.008660000000000001 -0.009991026716568195)
(0.00868 -0.010014100681271586)
(0.008700000000000001 -0.010037174645974976)
(0.00872 -0.010060248610678366)
(0.008740000000000001 -0.010083322575381757)
(0.00876 -0.010106396540085149)
(0.008780000000000001 -0.010129470504788539)
(0.0088 -0.01015254446949193)
(0.008820000000000001 -0.010175618434195321)
(0.00884 -0.010198692398898711)
(0.008860000000000002 -0.010221766363602102)
(0.00888 -0.010244840328305492)
(0.0089 -0.010267914293008884)
(0.00892 -0.010290988257712274)
(0.00894 -0.010314062222415666)
(0.008960000000000001 -0.010337136187119055)
(0.00898 -0.010360210151822447)
(0.009000000000000001 -0.010383284116525837)
(0.00902 -0.010406358081229227)
(0.009040000000000001 -0.01042943204593262)
(0.00906 -0.010452506010636008)
(0.009080000000000001 -0.0104755799753394)
(0.0091 -0.01049865394004279)
(0.009120000000000001 -0.010521727904746182)
(0.00914 -0.010544801869449573)
(0.009160000000000001 -0.010567875834152965)
(0.00918 -0.010590949798856353)
(0.009200000000000002 -0.010614023763559745)
(0.00922 -0.010637097728263135)
(0.00924 -0.010660171692966526)
(0.009260000000000001 -0.010683245657669918)
(0.00928 -0.010706319622373306)
(0.009300000000000001 -0.010729393587076698)
(0.00932 -0.010752467551780089)
(0.009340000000000001 -0.01077554151648348)
(0.00936 -0.01079861548118687)
(0.009380000000000001 -0.010821689445890263)
(0.0094 -0.010844763410593651)
(0.009420000000000001 -0.010867837375297043)
(0.00944 -0.010890911340000434)
(0.009460000000000001 -0.010913985304703824)
(0.00948 -0.010937059269407216)
(0.009500000000000001 -0.010960133234110605)
(0.00952 -0.010983207198813997)
(0.009540000000000002 -0.011006281163517387)
(0.00956 -0.011029355128220779)
(0.00958 -0.011052429092924169)
(0.009600000000000001 -0.011075503057627561)
(0.00962 -0.01109857702233095)
(0.009640000000000001 -0.01112165098703434)
(0.00966 -0.011144724951737732)
(0.009680000000000001 -0.011167798916441122)
(0.0097 -0.011190872881144514)
(0.009720000000000001 -0.011213946845847903)
(0.00974 -0.011237020810551295)
(0.009760000000000001 -0.011260094775254685)
(0.00978 -0.011283168739958077)
(0.009800000000000001 -0.011306242704661467)
(0.00982 -0.01132931666936486)
(0.009840000000000002 -0.011352390634068248)
(0.00986 -0.011375464598771638)
(0.009880000000000002 -0.01139853856347503)
(0.0099 -0.01142161252817842)
(0.00992 -0.011444686492881813)
(0.009940000000000001 -0.011467760457585201)
(0.00996 -0.011490834422288593)
(0.009980000000000001 -0.011513908386991983)
(0.01 -0.011536982351695375)
(0.010020000000000001 -0.011560056316398766)
(0.01004 -0.011583130281102154)
(0.010060000000000001 -0.011606204245805546)
(0.01008 -0.011629278210508937)
(0.010100000000000001 -0.011652352175212329)
(0.01012 -0.011675426139915719)
(0.010140000000000001 -0.01169850010461911)
(0.01016 -0.0117215740693225)
(0.010180000000000002 -0.011744648034025891)
(0.0102 -0.011767721998729282)
(0.010220000000000002 -0.011790795963432674)
(0.01024 -0.011813869928136064)
(0.01026 -0.011836943892839452)
(0.010280000000000001 -0.011860017857542845)
(0.0103 -0.011883091822246235)
(0.010320000000000001 -0.011906165786949627)
(0.01034 -0.011929239751653017)
(0.010360000000000001 -0.011952313716356409)
(0.01038 -0.011975387681059798)
(0.010400000000000001 -0.01199846164576319)
(0.01042 -0.01202153561046658)
(0.010440000000000001 -0.012044609575169972)
(0.01046 -0.012067683539873362)
(0.010480000000000001 -0.01209075750457675)
(0.0105 -0.012113831469280143)
(0.010520000000000002 -0.012136905433983533)
(0.01054 -0.012159979398686925)
(0.010560000000000002 -0.012183053363390315)
(0.01058 -0.012206127328093707)
(0.0106 -0.012229201292797098)
(0.010620000000000001 -0.012252275257500488)
(0.01064 -0.012275349222203878)
(0.010660000000000001 -0.012298423186907268)
(0.01068 -0.01232149715161066)
(0.010700000000000001 -0.01234457111631405)
(0.01072 -0.012367645081017443)
(0.010740000000000001 -0.012390719045720831)
(0.01076 -0.012413793010424223)
(0.010780000000000001 -0.012436866975127614)
(0.0108 -0.012459940939831006)
(0.010820000000000001 -0.012483014904534396)
(0.01084 -0.012506088869237788)
(0.010860000000000002 -0.012529162833941176)
(0.01088 -0.012552236798644567)
(0.010900000000000002 -0.012575310763347959)
(0.010920000000000001 -0.012598384728051349)
(0.01094 -0.012621458692754741)
(0.010960000000000001 -0.01264453265745813)
(0.01098 -0.012667606622161522)
(0.011000000000000001 -0.012690680586864912)
(0.01102 -0.012713754551568304)
(0.011040000000000001 -0.012736828516271694)
(0.01106 -0.012759902480975083)
(0.011080000000000001 -0.012782976445678475)
(0.0111 -0.012806050410381865)
(0.011120000000000001 -0.012829124375085257)
(0.01114 -0.012852198339788647)
(0.011160000000000002 -0.01287527230449204)
(0.01118 -0.012898346269195428)
(0.011200000000000002 -0.01292142023389882)
(0.01122 -0.01294449419860221)
(0.011240000000000002 -0.012967568163305602)
(0.011260000000000001 -0.012990642128008992)
(0.01128 -0.013013716092712381)
(0.011300000000000001 -0.013036790057415773)
(0.01132 -0.013059864022119163)
(0.011340000000000001 -0.013082937986822555)
(0.01136 -0.013106011951525946)
(0.011380000000000001 -0.013129085916229338)
(0.0114 -0.013152159880932726)
(0.011420000000000001 -0.013175233845636118)
(0.01144 -0.013198307810339508)
(0.011460000000000001 -0.0132213817750429)
(0.01148 -0.01324445573974629)
(0.011500000000000002 -0.01326752970444968)
(0.01152 -0.013290603669153071)
(0.011540000000000002 -0.013313677633856462)
(0.01156 -0.013336751598559854)
(0.011580000000000002 -0.013359825563263244)
(0.011600000000000001 -0.013382899527966636)
(0.01162 -0.013405973492670024)
(0.011640000000000001 -0.013429047457373416)
(0.01166 -0.013452121422076807)
(0.011680000000000001 -0.013475195386780197)
(0.0117 -0.013498269351483589)
(0.011720000000000001 -0.013521343316186978)
(0.01174 -0.01354441728089037)
(0.011760000000000001 -0.01356749124559376)
(0.01178 -0.013590565210297152)
(0.011800000000000001 -0.013613639175000542)
(0.01182 -0.013636713139703934)
(0.011840000000000002 -0.013659787104407323)
(0.01186 -0.013682861069110715)
(0.011880000000000002 -0.013705935033814105)
(0.0119 -0.013729008998517495)
(0.011920000000000002 -0.013752082963220887)
(0.011940000000000001 -0.013775156927924276)
(0.01196 -0.013798230892627668)
(0.011980000000000001 -0.013821304857331058)
(0.012 -0.01384437882203445)
(0.012020000000000001 -0.01386745278673784)
(0.01204 -0.013890526751441232)
(0.012060000000000001 -0.013913600716144621)
(0.01208 -0.013936674680848013)
(0.012100000000000001 -0.013959748645551403)
(0.01212 -0.013982822610254794)
(0.012140000000000001 -0.014005896574958186)
(0.01216 -0.014028970539661574)
(0.012180000000000002 -0.014052044504364966)
(0.0122 -0.014075118469068356)
(0.012220000000000002 -0.014098192433771748)
(0.012240000000000001 -0.014121266398475139)
(0.012260000000000002 -0.01414434036317853)
(0.012280000000000001 -0.01416741432788192)
(0.0123 -0.01419048829258531)
(0.012320000000000001 -0.014213562257288702)
(0.01234 -0.014236636221992092)
(0.012360000000000001 -0.014259710186695484)
(0.01238 -0.014282784151398872)
(0.012400000000000001 -0.014305858116102264)
(0.01242 -0.014328932080805655)
(0.012440000000000001 -0.014352006045509047)
(0.01246 -0.014375080010212437)
(0.012480000000000002 -0.014398153974915829)
(0.0125 -0.014421227939619218)
(0.012520000000000002 -0.014444301904322608)
(0.01254 -0.014467375869026)
(0.012560000000000002 -0.01449044983372939)
(0.012580000000000001 -0.014513523798432782)
(0.012600000000000002 -0.01453659776313617)
(0.012620000000000001 -0.014559671727839563)
(0.01264 -0.014582745692542953)
(0.012660000000000001 -0.014605819657246345)
(0.01268 -0.014628893621949735)
(0.012700000000000001 -0.014651967586653124)
(0.01272 -0.014675041551356516)
(0.012740000000000001 -0.014698115516059906)
(0.01276 -0.014721189480763298)
(0.012780000000000001 -0.014744263445466688)
(0.0128 -0.01476733741017008)
(0.012820000000000002 -0.014790411374873469)
(0.01284 -0.014813485339576861)
(0.012860000000000002 -0.014836559304280251)
(0.01288 -0.014859633268983643)
(0.012900000000000002 -0.014882707233687033)
(0.012920000000000001 -0.014905781198390424)
(0.012940000000000002 -0.014928855163093814)
(0.012960000000000001 -0.014951929127797204)
(0.01298 -0.014975003092500596)
(0.013000000000000001 -0.014998077057203987)
(0.01302 -0.015021151021907379)
(0.013040000000000001 -0.015044224986610769)
(0.01306 -0.015067298951314161)
(0.013080000000000001 -0.01509037291601755)
(0.0131 -0.015113446880720941)
(0.013120000000000001 -0.015136520845424332)
(0.01314 -0.015159594810127722)
(0.013160000000000002 -0.015182668774831114)
(0.01318 -0.015205742739534503)
(0.013200000000000002 -0.015228816704237895)
(0.01322 -0.015251890668941285)
(0.013240000000000002 -0.015274964633644677)
(0.013260000000000001 -0.015298038598348067)
(0.013280000000000002 -0.01532111256305146)
(0.013300000000000001 -0.015344186527754848)
(0.01332 -0.015367260492458238)
(0.013340000000000001 -0.01539033445716163)
(0.01336 -0.01541340842186502)
(0.013380000000000001 -0.015436482386568412)
(0.0134 -0.015459556351271801)
(0.013420000000000001 -0.015482630315975193)
(0.01344 -0.015505704280678583)
(0.013460000000000001 -0.015528778245381975)
(0.01348 -0.015551852210085365)
(0.013500000000000002 -0.015574926174788757)
(0.01352 -0.015598000139492146)
(0.013540000000000002 -0.015621074104195536)
(0.013560000000000001 -0.01564414806889893)
(0.013580000000000002 -0.015667222033602317)
(0.013600000000000001 -0.01569029599830571)
(0.013620000000000002 -0.0157133699630091)
(0.013640000000000001 -0.015736443927712493)
(0.01366 -0.01575951789241588)
(0.013680000000000001 -0.015782591857119273)
(0.0137 -0.015805665821822662)
(0.013720000000000001 -0.015828739786526054)
(0.01374 -0.015851813751229446)
(0.013760000000000001 -0.015874887715932835)
(0.01378 -0.015897961680636227)
(0.013800000000000002 -0.015921035645339615)
(0.01382 -0.015944109610043007)
(0.013840000000000002 -0.0159671835747464)
(0.01386 -0.01599025753944979)
(0.013880000000000002 -0.01601333150415318)
(0.013900000000000001 -0.01603640546885657)
(0.013920000000000002 -0.01605947943355996)
(0.013940000000000001 -0.016082553398263352)
(0.013960000000000002 -0.016105627362966744)
(0.013980000000000001 -0.016128701327670133)
(0.014 -0.016151775292373525)
(0.014020000000000001 -0.016174849257076913)
(0.01404 -0.016197923221780305)
(0.014060000000000001 -0.016220997186483697)
(0.01408 -0.01624407115118709)
(0.014100000000000001 -0.016267145115890478)
(0.01412 -0.01629021908059387)
(0.014140000000000002 -0.01631329304529726)
(0.01416 -0.01633636701000065)
(0.014180000000000002 -0.016359440974704043)
(0.0142 -0.01638251493940743)
(0.014220000000000002 -0.016405588904110823)
(0.014240000000000001 -0.01642866286881421)
(0.014260000000000002 -0.016451736833517604)
(0.014280000000000001 -0.016474810798220996)
(0.014300000000000002 -0.016497884762924388)
(0.014320000000000001 -0.016520958727627776)
(0.01434 -0.016544032692331165)
(0.014360000000000001 -0.016567106657034557)
(0.01438 -0.01659018062173795)
(0.014400000000000001 -0.01661325458644134)
(0.01442 -0.01663632855114473)
(0.014440000000000001 -0.01665940251584812)
(0.01446 -0.01668247648055151)
(0.014480000000000002 -0.016705550445254902)
(0.0145 -0.016728624409958294)
(0.014520000000000002 -0.016751698374661686)
(0.01454 -0.016774772339365075)
(0.014560000000000002 -0.016797846304068463)
(0.014580000000000001 -0.016820920268771855)
(0.014600000000000002 -0.016843994233475247)
(0.014620000000000001 -0.01686706819817864)
(0.014640000000000002 -0.016890142162882028)
(0.014660000000000001 -0.01691321612758542)
(0.01468 -0.016936290092288808)
(0.014700000000000001 -0.0169593640569922)
(0.01472 -0.016982438021695592)
(0.014740000000000001 -0.017005511986398984)
(0.01476 -0.017028585951102373)
(0.014780000000000001 -0.01705165991580576)
(0.0148 -0.017074733880509153)
(0.014820000000000002 -0.017097807845212545)
(0.01484 -0.017120881809915937)
(0.014860000000000002 -0.017143955774619326)
(0.01488 -0.017167029739322718)
(0.014900000000000002 -0.017190103704026106)
(0.014920000000000001 -0.0172131776687295)